File C:\Users\ses516\Desktop\Adv. FE\Project\Finals - DYNAMIC\SAP\EX2.$2k was saved on 12/6/17 at 20:29:53
 
TABLE:  "ACTIVE DEGREES OF FREEDOM"
   UX=Yes   UY=No   UZ=Yes   RX=No   RY=Yes   RZ=No
 
TABLE:  "ANALYSIS OPTIONS"
   Solver=Advanced   SolverProc=Auto   Force32Bit=No   StiffCase=MODAL   GeomMod=None
 
TABLE:  "AUTO WAVE 3 - WAVE CHARACTERISTICS - GENERAL"
   WaveChar=Default   WaveType="From Theory"   KinFactor=1   SWaterDepth=4500   WaveHeight=1800   WavePeriod=12   WaveTheory=Linear
 
TABLE:  "CASE - DIRECT HISTORY 1 - GENERAL"
   Case=LOAD   OutSteps=10   StepSize=0.01
 
TABLE:  "CASE - DIRECT HISTORY 2 - LOAD ASSIGNMENTS"
   Case=LOAD   LoadType="Load pattern"   LoadName=LOAD   Function=FUNC1   LoadSF=1   TimeFactor=1   ArrivalTime=0
 
TABLE:  "CASE - DIRECT HISTORY 3 - PROPORTIONAL DAMPING"
   Case=LOAD   MassCoeff=0   StiffCoeff=0
 
TABLE:  "CASE - DIRECT HISTORY 4 - INTEGRATION PARAMETERS"
   Case=LOAD   IntMethod=HilberHughesTaylor   Gamma=0.5   Beta=0.25   Alpha=0
 
TABLE:  "CASE - MODAL 1 - GENERAL"
   Case=MODAL   ModeType=Eigen   MaxNumModes=12   MinNumModes=1   EigenShift=0   EigenCutoff=0   EigenTol=1E-09   AutoShift=Yes
 
TABLE:  "CASE - STATIC 1 - LOAD ASSIGNMENTS"
   Case=DEAD   LoadType="Load pattern"   LoadName=DEAD   LoadSF=1
 
TABLE:  "CONNECTIVITY - FRAME"
   Frame=4   JointI=1   JointJ=5   IsCurved=No   GUID=f8ea4a0b-f83d-4fc5-a2b8-e1b3f05940fd
   Frame=5   JointI=5   JointJ=6   IsCurved=No   GUID=e82b342e-86c5-4456-a6b1-b7c9143c8258
   Frame=6   JointI=6   JointJ=7   IsCurved=No   GUID=f3e669f5-d04c-4f8e-9757-53d5f1a348e4
   Frame=7   JointI=7   JointJ=8   IsCurved=No   GUID=29bbb3ba-77ce-4110-81b3-ef267de73398
   Frame=8   JointI=8   JointJ=9   IsCurved=No   GUID=91b372a4-6894-414a-9ab4-5e53c5c45b33
   Frame=9   JointI=9   JointJ=10   IsCurved=No   GUID=4d1fd915-3ccf-468b-aa73-60eed7c62189
   Frame=10   JointI=10   JointJ=11   IsCurved=No   GUID=1b35b8b3-cf94-41a9-87d3-ce5997c172d1
   Frame=11   JointI=11   JointJ=12   IsCurved=No   GUID=24676de2-ebc6-4153-b9a9-558b0db728e9
   Frame=12   JointI=12   JointJ=13   IsCurved=No   GUID=46077dc3-ae38-4558-af5c-09a33ad57ec6
   Frame=13   JointI=13   JointJ=14   IsCurved=No   GUID=c21f824b-907f-4288-ac8e-d006d89e6ef0
   Frame=14   JointI=14   JointJ=15   IsCurved=No   GUID=7d03f22c-7718-427b-95a1-b98f2b8429a6
   Frame=15   JointI=15   JointJ=16   IsCurved=No   GUID=448a9ef1-c5f7-446b-8bd3-ed31c963f307
   Frame=16   JointI=16   JointJ=17   IsCurved=No   GUID=87dd53e6-e370-4965-b940-bef95bba5601
   Frame=17   JointI=17   JointJ=18   IsCurved=No   GUID=dd2311bd-e2f9-4b86-b7a2-757774544db3
   Frame=18   JointI=18   JointJ=19   IsCurved=No   GUID=ddcb96f9-7006-434c-9562-5cd7e94bcf38
   Frame=19   JointI=19   JointJ=20   IsCurved=No   GUID=af08bf8e-d7d2-4814-b079-e51afdc092cb
   Frame=20   JointI=20   JointJ=21   IsCurved=No   GUID=7c6bbcee-3702-4c9b-9214-424c0da3056c
   Frame=21   JointI=21   JointJ=22   IsCurved=No   GUID=d2342459-8b5a-4040-b221-91367423d90d
   Frame=22   JointI=22   JointJ=23   IsCurved=No   GUID=5f8ef71d-95e0-466b-962f-1523ceb4f954
   Frame=23   JointI=23   JointJ=24   IsCurved=No   GUID=cc44843c-0dfa-428f-9345-a32fe6312ac7
   Frame=24   JointI=24   JointJ=25   IsCurved=No   GUID=54dbd3b9-f6cc-4b2d-a9cf-e4f6791263a2
   Frame=25   JointI=25   JointJ=26   IsCurved=No   GUID=1a542c94-6f71-4270-9f1d-43113ab6b078
   Frame=26   JointI=26   JointJ=27   IsCurved=No   GUID=6c51bc77-6c29-452a-8330-e87306d107e6
   Frame=27   JointI=27   JointJ=28   IsCurved=No   GUID=e56f316a-6781-48da-88bc-bdb700e1a18a
   Frame=28   JointI=28   JointJ=29   IsCurved=No   GUID=6e06f7f6-e92c-43b2-953f-55f0cda57513
   Frame=29   JointI=29   JointJ=30   IsCurved=No   GUID=035ebc61-a4a0-49e9-92ac-1e3a3e6990bc
   Frame=30   JointI=30   JointJ=31   IsCurved=No   GUID=6f37805e-7ce8-4f79-8737-46a9ff03849e
   Frame=31   JointI=31   JointJ=32   IsCurved=No   GUID=d6728e45-8f6a-4ea0-a728-20eb4d5e9cc6
   Frame=32   JointI=32   JointJ=33   IsCurved=No   GUID=f17251cb-844c-45da-be3e-25754f9de708
   Frame=33   JointI=33   JointJ=2   IsCurved=No   GUID=c34073cc-45f1-4368-9bed-c8692b06d046
   Frame=34   JointI=2   JointJ=34   IsCurved=No   GUID=82993411-0ea8-4bcf-966e-d419d7d92c2e
   Frame=35   JointI=34   JointJ=35   IsCurved=No   GUID=68e0ad42-f97b-4339-8fb5-255862ac7a94
   Frame=36   JointI=35   JointJ=36   IsCurved=No   GUID=d8f60ce8-014f-4801-9660-348737148a97
   Frame=37   JointI=36   JointJ=37   IsCurved=No   GUID=96083e51-57b9-4c42-92fe-afb9beae70be
   Frame=38   JointI=37   JointJ=38   IsCurved=No   GUID=31789c52-13e7-4256-8e72-808301fc2ef9
   Frame=39   JointI=38   JointJ=39   IsCurved=No   GUID=3f4b7112-85c3-4cd4-9861-134e4bce540e
   Frame=40   JointI=39   JointJ=40   IsCurved=No   GUID=cfd1fb79-970a-4b97-a9a8-00a38cb999c6
   Frame=41   JointI=40   JointJ=41   IsCurved=No   GUID=96c2d3d6-5edc-4263-acf7-3c0ad3e081c5
   Frame=42   JointI=41   JointJ=42   IsCurved=No   GUID=e8204b6c-e2c0-4ab5-9126-8190d4482aa1
   Frame=43   JointI=42   JointJ=43   IsCurved=No   GUID=eea54799-d817-42bd-94ae-046352ee6205
   Frame=44   JointI=43   JointJ=44   IsCurved=No   GUID=74812376-e43e-4e83-af84-febc66fafdee
   Frame=45   JointI=44   JointJ=45   IsCurved=No   GUID=6019f408-8b75-4a34-82c7-22b543ee249f
   Frame=46   JointI=45   JointJ=46   IsCurved=No   GUID=e13ec4a6-37b8-4199-9418-289e760dbebb
   Frame=47   JointI=46   JointJ=47   IsCurved=No   GUID=9fff2b3b-c14c-4ca7-a615-42a8a364365c
   Frame=48   JointI=47   JointJ=48   IsCurved=No   GUID=4cf36833-4c2a-4805-881e-3ba05cc89e3c
   Frame=49   JointI=48   JointJ=49   IsCurved=No   GUID=727501a4-ff05-4f46-8ce9-0d83a810a6e6
   Frame=50   JointI=49   JointJ=50   IsCurved=No   GUID=ed6b8ffe-79e0-4448-b494-d8b1275b075c
   Frame=51   JointI=50   JointJ=51   IsCurved=No   GUID=4b3ec0e6-1525-463d-96ee-0460336382d3
   Frame=52   JointI=51   JointJ=52   IsCurved=No   GUID=88143de3-6b1b-46b9-9eaf-3cdd9716414a
   Frame=53   JointI=52   JointJ=4   IsCurved=No   GUID=403b12a6-a74d-4545-b9c6-1ec319e7e741
 
TABLE:  "COORDINATE SYSTEMS"
   Name=GLOBAL   Type=Cartesian   X=0   Y=0   Z=0   AboutZ=0   AboutY=0   AboutX=0
 
TABLE:  "DATABASE DOCUMENTATION"
 
TABLE:  "DATABASE FORMAT TYPES"
   UnitsCurr=Yes   OverrideE=No
 
TABLE:  "FRAME AUTO MESH ASSIGNMENTS"
   Frame=4   AutoMesh=Yes   AtJoints=Yes   AtFrames=No   NumSegments=0   MaxLength=0   MaxDegrees=0
   Frame=5   AutoMesh=Yes   AtJoints=Yes   AtFrames=No   NumSegments=0   MaxLength=0   MaxDegrees=0
   Frame=6   AutoMesh=Yes   AtJoints=Yes   AtFrames=No   NumSegments=0   MaxLength=0   MaxDegrees=0
   Frame=7   AutoMesh=Yes   AtJoints=Yes   AtFrames=No   NumSegments=0   MaxLength=0   MaxDegrees=0
   Frame=8   AutoMesh=Yes   AtJoints=Yes   AtFrames=No   NumSegments=0   MaxLength=0   MaxDegrees=0
   Frame=9   AutoMesh=Yes   AtJoints=Yes   AtFrames=No   NumSegments=0   MaxLength=0   MaxDegrees=0
   Frame=10   AutoMesh=Yes   AtJoints=Yes   AtFrames=No   NumSegments=0   MaxLength=0   MaxDegrees=0
   Frame=11   AutoMesh=Yes   AtJoints=Yes   AtFrames=No   NumSegments=0   MaxLength=0   MaxDegrees=0
   Frame=12   AutoMesh=Yes   AtJoints=Yes   AtFrames=No   NumSegments=0   MaxLength=0   MaxDegrees=0
   Frame=13   AutoMesh=Yes   AtJoints=Yes   AtFrames=No   NumSegments=0   MaxLength=0   MaxDegrees=0
   Frame=14   AutoMesh=Yes   AtJoints=Yes   AtFrames=No   NumSegments=0   MaxLength=0   MaxDegrees=0
   Frame=15   AutoMesh=Yes   AtJoints=Yes   AtFrames=No   NumSegments=0   MaxLength=0   MaxDegrees=0
   Frame=16   AutoMesh=Yes   AtJoints=Yes   AtFrames=No   NumSegments=0   MaxLength=0   MaxDegrees=0
   Frame=17   AutoMesh=Yes   AtJoints=Yes   AtFrames=No   NumSegments=0   MaxLength=0   MaxDegrees=0
   Frame=18   AutoMesh=Yes   AtJoints=Yes   AtFrames=No   NumSegments=0   MaxLength=0   MaxDegrees=0
   Frame=19   AutoMesh=Yes   AtJoints=Yes   AtFrames=No   NumSegments=0   MaxLength=0   MaxDegrees=0
   Frame=20   AutoMesh=Yes   AtJoints=Yes   AtFrames=No   NumSegments=0   MaxLength=0   MaxDegrees=0
   Frame=21   AutoMesh=Yes   AtJoints=Yes   AtFrames=No   NumSegments=0   MaxLength=0   MaxDegrees=0
   Frame=22   AutoMesh=Yes   AtJoints=Yes   AtFrames=No   NumSegments=0   MaxLength=0   MaxDegrees=0
   Frame=23   AutoMesh=Yes   AtJoints=Yes   AtFrames=No   NumSegments=0   MaxLength=0   MaxDegrees=0
# ... 30 like lines cut
 
TABLE:  "FRAME DESIGN PROCEDURES"
   Frame=4   DesignProc="No Design"
   Frame=5   DesignProc="No Design"
   Frame=6   DesignProc="No Design"
   Frame=7   DesignProc="No Design"
   Frame=8   DesignProc="No Design"
   Frame=9   DesignProc="No Design"
   Frame=10   DesignProc="No Design"
   Frame=11   DesignProc="No Design"
   Frame=12   DesignProc="No Design"
   Frame=13   DesignProc="No Design"
   Frame=14   DesignProc="No Design"
   Frame=15   DesignProc="No Design"
   Frame=16   DesignProc="No Design"
   Frame=17   DesignProc="No Design"
   Frame=18   DesignProc="No Design"
   Frame=19   DesignProc="No Design"
   Frame=20   DesignProc="No Design"
   Frame=21   DesignProc="No Design"
   Frame=22   DesignProc="No Design"
   Frame=23   DesignProc="No Design"
# ... 30 like lines cut
 
TABLE:  "FRAME LOAD TRANSFER OPTIONS"
   Frame=4   Transfer=Yes
   Frame=5   Transfer=Yes
   Frame=6   Transfer=Yes
   Frame=7   Transfer=Yes
   Frame=8   Transfer=Yes
   Frame=9   Transfer=Yes
   Frame=10   Transfer=Yes
   Frame=11   Transfer=Yes
   Frame=12   Transfer=Yes
   Frame=13   Transfer=Yes
   Frame=14   Transfer=Yes
   Frame=15   Transfer=Yes
   Frame=16   Transfer=Yes
   Frame=17   Transfer=Yes
   Frame=18   Transfer=Yes
   Frame=19   Transfer=Yes
   Frame=20   Transfer=Yes
   Frame=21   Transfer=Yes
   Frame=22   Transfer=Yes
   Frame=23   Transfer=Yes
# ... 30 like lines cut
 
TABLE:  "FRAME OUTPUT STATION ASSIGNMENTS"
   Frame=4   StationType=MinNumSta   MinNumSta=3   AddAtElmInt=Yes   AddAtPtLoad=Yes
   Frame=5   StationType=MinNumSta   MinNumSta=3   AddAtElmInt=Yes   AddAtPtLoad=Yes
   Frame=6   StationType=MinNumSta   MinNumSta=3   AddAtElmInt=Yes   AddAtPtLoad=Yes
   Frame=7   StationType=MinNumSta   MinNumSta=3   AddAtElmInt=Yes   AddAtPtLoad=Yes
   Frame=8   StationType=MinNumSta   MinNumSta=3   AddAtElmInt=Yes   AddAtPtLoad=Yes
   Frame=9   StationType=MinNumSta   MinNumSta=3   AddAtElmInt=Yes   AddAtPtLoad=Yes
   Frame=10   StationType=MinNumSta   MinNumSta=3   AddAtElmInt=Yes   AddAtPtLoad=Yes
   Frame=11   StationType=MinNumSta   MinNumSta=3   AddAtElmInt=Yes   AddAtPtLoad=Yes
   Frame=12   StationType=MinNumSta   MinNumSta=3   AddAtElmInt=Yes   AddAtPtLoad=Yes
   Frame=13   StationType=MinNumSta   MinNumSta=3   AddAtElmInt=Yes   AddAtPtLoad=Yes
   Frame=14   StationType=MinNumSta   MinNumSta=3   AddAtElmInt=Yes   AddAtPtLoad=Yes
   Frame=15   StationType=MinNumSta   MinNumSta=3   AddAtElmInt=Yes   AddAtPtLoad=Yes
   Frame=16   StationType=MinNumSta   MinNumSta=3   AddAtElmInt=Yes   AddAtPtLoad=Yes
   Frame=17   StationType=MinNumSta   MinNumSta=3   AddAtElmInt=Yes   AddAtPtLoad=Yes
   Frame=18   StationType=MinNumSta   MinNumSta=3   AddAtElmInt=Yes   AddAtPtLoad=Yes
   Frame=19   StationType=MinNumSta   MinNumSta=3   AddAtElmInt=Yes   AddAtPtLoad=Yes
   Frame=20   StationType=MinNumSta   MinNumSta=3   AddAtElmInt=Yes   AddAtPtLoad=Yes
   Frame=21   StationType=MinNumSta   MinNumSta=3   AddAtElmInt=Yes   AddAtPtLoad=Yes
   Frame=22   StationType=MinNumSta   MinNumSta=3   AddAtElmInt=Yes   AddAtPtLoad=Yes
   Frame=23   StationType=MinNumSta   MinNumSta=3   AddAtElmInt=Yes   AddAtPtLoad=Yes
# ... 10 like lines cut
   Frame=34   StationType=MaxStaSpcg   MaxStaSpcg=50   AddAtElmInt=Yes   AddAtPtLoad=Yes
   Frame=35   StationType=MaxStaSpcg   MaxStaSpcg=50   AddAtElmInt=Yes   AddAtPtLoad=Yes
   Frame=36   StationType=MaxStaSpcg   MaxStaSpcg=50   AddAtElmInt=Yes   AddAtPtLoad=Yes
   Frame=37   StationType=MaxStaSpcg   MaxStaSpcg=50   AddAtElmInt=Yes   AddAtPtLoad=Yes
   Frame=38   StationType=MaxStaSpcg   MaxStaSpcg=50   AddAtElmInt=Yes   AddAtPtLoad=Yes
   Frame=39   StationType=MaxStaSpcg   MaxStaSpcg=50   AddAtElmInt=Yes   AddAtPtLoad=Yes
   Frame=40   StationType=MaxStaSpcg   MaxStaSpcg=50   AddAtElmInt=Yes   AddAtPtLoad=Yes
   Frame=41   StationType=MaxStaSpcg   MaxStaSpcg=50   AddAtElmInt=Yes   AddAtPtLoad=Yes
   Frame=42   StationType=MaxStaSpcg   MaxStaSpcg=50   AddAtElmInt=Yes   AddAtPtLoad=Yes
   Frame=43   StationType=MaxStaSpcg   MaxStaSpcg=50   AddAtElmInt=Yes   AddAtPtLoad=Yes
   Frame=44   StationType=MaxStaSpcg   MaxStaSpcg=50   AddAtElmInt=Yes   AddAtPtLoad=Yes
   Frame=45   StationType=MaxStaSpcg   MaxStaSpcg=50   AddAtElmInt=Yes   AddAtPtLoad=Yes
   Frame=46   StationType=MaxStaSpcg   MaxStaSpcg=50   AddAtElmInt=Yes   AddAtPtLoad=Yes
   Frame=47   StationType=MaxStaSpcg   MaxStaSpcg=50   AddAtElmInt=Yes   AddAtPtLoad=Yes
   Frame=48   StationType=MaxStaSpcg   MaxStaSpcg=50   AddAtElmInt=Yes   AddAtPtLoad=Yes
   Frame=49   StationType=MaxStaSpcg   MaxStaSpcg=50   AddAtElmInt=Yes   AddAtPtLoad=Yes
   Frame=50   StationType=MaxStaSpcg   MaxStaSpcg=50   AddAtElmInt=Yes   AddAtPtLoad=Yes
   Frame=51   StationType=MaxStaSpcg   MaxStaSpcg=50   AddAtElmInt=Yes   AddAtPtLoad=Yes
   Frame=52   StationType=MaxStaSpcg   MaxStaSpcg=50   AddAtElmInt=Yes   AddAtPtLoad=Yes
   Frame=53   StationType=MaxStaSpcg   MaxStaSpcg=50   AddAtElmInt=Yes   AddAtPtLoad=Yes
 
TABLE:  "FRAME SECTION ASSIGNMENTS"
   Frame=4   AutoSelect=N.A.   AnalSect=sec   MatProp=Default
   Frame=5   AutoSelect=N.A.   AnalSect=sec   MatProp=Default
   Frame=6   AutoSelect=N.A.   AnalSect=sec   MatProp=Default
   Frame=7   AutoSelect=N.A.   AnalSect=sec   MatProp=Default
   Frame=8   AutoSelect=N.A.   AnalSect=sec   MatProp=Default
   Frame=9   AutoSelect=N.A.   AnalSect=sec   MatProp=Default
   Frame=10   AutoSelect=N.A.   AnalSect=sec   MatProp=Default
   Frame=11   AutoSelect=N.A.   AnalSect=sec   MatProp=Default
   Frame=12   AutoSelect=N.A.   AnalSect=sec   MatProp=Default
   Frame=13   AutoSelect=N.A.   AnalSect=sec   MatProp=Default
   Frame=14   AutoSelect=N.A.   AnalSect=sec   MatProp=Default
   Frame=15   AutoSelect=N.A.   AnalSect=sec   MatProp=Default
   Frame=16   AutoSelect=N.A.   AnalSect=sec   MatProp=Default
   Frame=17   AutoSelect=N.A.   AnalSect=sec   MatProp=Default
   Frame=18   AutoSelect=N.A.   AnalSect=sec   MatProp=Default
   Frame=19   AutoSelect=N.A.   AnalSect=sec   MatProp=Default
   Frame=20   AutoSelect=N.A.   AnalSect=sec   MatProp=Default
   Frame=21   AutoSelect=N.A.   AnalSect=sec   MatProp=Default
   Frame=22   AutoSelect=N.A.   AnalSect=sec   MatProp=Default
   Frame=23   AutoSelect=N.A.   AnalSect=sec   MatProp=Default
# ... 30 like lines cut
 
TABLE:  "FRAME SECTION PROPERTIES 01 - GENERAL"
   SectionName=FSEC1   Material=mat   Shape="I/Wide Flange"   t3=30.48   t2=12.7   tf=0.9652   tw=0.635   t2b=12.7   tfb=0.9652   Area=42.645076   TorsConst=9.65117678053953   I33=6572.4174702235   I22=330.125717301008   I23=0   AS2=19.3548 _
        AS3=20.4300666666667   S33=431.26098885981   S22=51.9883019371667   Z33=491.1874950424   Z22=80.716532115   R33=12.4144683132414   R22=2.78230817990979   Color=Cyan   FromFile=No   AMod=1   A2Mod=1   A3Mod=1   JMod=1   I2Mod=1 _
        I3Mod=1   MMod=1   WMod=1   Notes="Added 11/27/2017 10:21:13 AM"
   SectionName=sec   Material=mat   Shape="SD Section"   Area=121   TorsConst=2062.70295801303   I33=1220.08333333333   I22=1220.08333333333   I23=0   AS2=100.833832221322   AS3=100.833832221322   S33=221.833333333333   S22=221.833333333333 _
        Z33=332.75   Z22=332.75   R33=3.17542648054294   R22=3.17542648054294   Color=Gray8Dark   FromFile=No   AMod=1   A2Mod=1   A3Mod=1   JMod=1   I2Mod=1   I3Mod=1   MMod=1   WMod=1   Notes="Added 11/27/2017 10:23:18 AM"
 
TABLE:  "FRAME SECTION PROPERTIES 13 - TIME DEPENDENT"
   SectionName=FSEC1   TypeSize=Auto   AutoSFSize=1
   SectionName=sec   TypeSize=Auto   AutoSFSize=1
 
TABLE:  "FUNCTION - PLOT FUNCTIONS"
   PlotFunc="Input Energy"   Type=Energy   Component=Input   Mode=All
   PlotFunc=Joint4   Type=Joint   ObjectLabel=4   Component=RelDispU1   Mode=All
   PlotFunc="Base Shear X"   Type=BaseReac   Component=VX   Mode=All
   PlotFunc=Joint43   Type=Joint   ObjectLabel=43   Component=RelDispR2   Mode=All
 
TABLE:  "FUNCTION - POWER SPECTRAL DENSITY - USER"
   Name=UNIFPSD   Frequency=0   Value=1
   Name=UNIFPSD   Frequency=1   Value=1
 
TABLE:  "FUNCTION - RESPONSE SPECTRUM - USER"
   Name=UNIFRS   Period=0   Accel=1   FuncDamp=0.05
   Name=UNIFRS   Period=1   Accel=1
 
TABLE:  "FUNCTION - STEADY STATE - USER"
   Name=UNIFSS   Frequency=0   Value=1
   Name=UNIFSS   Frequency=1   Value=1
 
TABLE:  "FUNCTION - TIME HISTORY - USER"
   Name=RAMPTH   Time=0   Value=0
   Name=RAMPTH   Time=1   Value=1
   Name=RAMPTH   Time=4   Value=1
   Name=UNIFTH   Time=0   Value=1
   Name=UNIFTH   Time=1   Value=1
   Name=FUNC1   Time=0   Value=0
   Name=FUNC1   Time=0.01   Value=1
   Name=FUNC1   Time=0.011   Value=0
   Name=FUNC1   Time=0.1   Value=0
 
TABLE:  "GRID LINES"
   CoordSys=GLOBAL   AxisDir=X   GridID=A   XRYZCoord=-100   LineType=Primary   LineColor=Gray8Dark   Visible=Yes   BubbleLoc=End   AllVisible=Yes   BubbleSize=50
   CoordSys=GLOBAL   AxisDir=X   GridID=B   XRYZCoord=100   LineType=Primary   LineColor=Gray8Dark   Visible=Yes   BubbleLoc=End
   CoordSys=GLOBAL   AxisDir=Y   GridID=1   XRYZCoord=0   LineType=Primary   LineColor=Gray8Dark   Visible=Yes   BubbleLoc=Start
   CoordSys=GLOBAL   AxisDir=Z   GridID=Z1   XRYZCoord=0   LineType=Primary   LineColor=Gray8Dark   Visible=Yes   BubbleLoc=End
   CoordSys=GLOBAL   AxisDir=Z   GridID=Z2   XRYZCoord=300   LineType=Primary   LineColor=Gray8Dark   Visible=Yes   BubbleLoc=End
 
TABLE:  "GROUPS 1 - DEFINITIONS"
   GroupName=ALL   Selection=Yes   SectionCut=Yes   Steel=Yes   Concrete=Yes   Aluminum=Yes   ColdFormed=Yes   Stage=Yes   Bridge=Yes   AutoSeismic=No   AutoWind=No   SelDesSteel=No   SelDesAlum=No   SelDesCold=No   MassWeight=Yes   Color=Red
 
TABLE:  "JOINT COORDINATES"
   Joint=1   CoordSys=GLOBAL   CoordType=Cartesian   XorR=-100   Y=0   Z=0   SpecialJt=No   GUID=3a219156-3e7a-4edd-8896-1edf45e0469c
   Joint=2   CoordSys=GLOBAL   CoordType=Cartesian   XorR=-100   Y=0   Z=300   SpecialJt=No   GUID=3a219156-3e7a-4edd-8896-1edf45e0469c
   Joint=4   CoordSys=GLOBAL   CoordType=Cartesian   XorR=100   Y=0   Z=300   SpecialJt=No   GUID=3a219156-3e7a-4edd-8896-1edf45e0469c
   Joint=5   CoordSys=GLOBAL   CoordType=Cartesian   XorR=-100   Y=0   Z=10   SpecialJt=No   GUID=3a219156-3e7a-4edd-8896-1edf45e0469c
   Joint=6   CoordSys=GLOBAL   CoordType=Cartesian   XorR=-100   Y=0   Z=20   SpecialJt=No   GUID=3a219156-3e7a-4edd-8896-1edf45e0469c
   Joint=7   CoordSys=GLOBAL   CoordType=Cartesian   XorR=-100   Y=0   Z=30   SpecialJt=No   GUID=3a219156-3e7a-4edd-8896-1edf45e0469c
   Joint=8   CoordSys=GLOBAL   CoordType=Cartesian   XorR=-100   Y=0   Z=40   SpecialJt=No   GUID=3a219156-3e7a-4edd-8896-1edf45e0469c
   Joint=9   CoordSys=GLOBAL   CoordType=Cartesian   XorR=-100   Y=0   Z=50   SpecialJt=No   GUID=3a219156-3e7a-4edd-8896-1edf45e0469c
   Joint=10   CoordSys=GLOBAL   CoordType=Cartesian   XorR=-100   Y=0   Z=60   SpecialJt=No   GUID=3a219156-3e7a-4edd-8896-1edf45e0469c
   Joint=11   CoordSys=GLOBAL   CoordType=Cartesian   XorR=-100   Y=0   Z=70   SpecialJt=No   GUID=3a219156-3e7a-4edd-8896-1edf45e0469c
   Joint=12   CoordSys=GLOBAL   CoordType=Cartesian   XorR=-100   Y=0   Z=80   SpecialJt=No   GUID=3a219156-3e7a-4edd-8896-1edf45e0469c
   Joint=13   CoordSys=GLOBAL   CoordType=Cartesian   XorR=-100   Y=0   Z=90   SpecialJt=No   GUID=3a219156-3e7a-4edd-8896-1edf45e0469c
   Joint=14   CoordSys=GLOBAL   CoordType=Cartesian   XorR=-100   Y=0   Z=100   SpecialJt=No   GUID=3a219156-3e7a-4edd-8896-1edf45e0469c
   Joint=15   CoordSys=GLOBAL   CoordType=Cartesian   XorR=-100   Y=0   Z=110   SpecialJt=No   GUID=3a219156-3e7a-4edd-8896-1edf45e0469c
   Joint=16   CoordSys=GLOBAL   CoordType=Cartesian   XorR=-100   Y=0   Z=120   SpecialJt=No   GUID=3a219156-3e7a-4edd-8896-1edf45e0469c
   Joint=17   CoordSys=GLOBAL   CoordType=Cartesian   XorR=-100   Y=0   Z=130   SpecialJt=No   GUID=3a219156-3e7a-4edd-8896-1edf45e0469c
   Joint=18   CoordSys=GLOBAL   CoordType=Cartesian   XorR=-100   Y=0   Z=140   SpecialJt=No   GUID=3a219156-3e7a-4edd-8896-1edf45e0469c
   Joint=19   CoordSys=GLOBAL   CoordType=Cartesian   XorR=-100   Y=0   Z=150   SpecialJt=No   GUID=3a219156-3e7a-4edd-8896-1edf45e0469c
   Joint=20   CoordSys=GLOBAL   CoordType=Cartesian   XorR=-100   Y=0   Z=160   SpecialJt=No   GUID=3a219156-3e7a-4edd-8896-1edf45e0469c
   Joint=21   CoordSys=GLOBAL   CoordType=Cartesian   XorR=-100   Y=0   Z=170   SpecialJt=No   GUID=3a219156-3e7a-4edd-8896-1edf45e0469c
# ... 31 like lines cut
 
TABLE:  "JOINT LOADS - FORCE"
   Joint=4   LoadPat=LOAD   CoordSys=GLOBAL   F1=100000   F2=0   F3=0   M1=0   M2=0   M3=0   GUID=3549ef4b-6dba-49b5-b9e7-3615b6c33c32
 
TABLE:  "JOINT PATTERN DEFINITIONS"
   Pattern=Default
 
TABLE:  "JOINT RESTRAINT ASSIGNMENTS"
   Joint=1   U1=Yes   U2=Yes   U3=Yes   R1=Yes   R2=No   R3=Yes
   Joint=4   U1=No   U2=No   U3=Yes   R1=No   R2=No   R3=No
 
TABLE:  "LOAD CASE DEFINITIONS"
   Case=DEAD   Type=LinStatic   InitialCond=Zero   DesTypeOpt="Prog Det"   DesignType=DEAD   DesActOpt="Prog Det"   DesignAct=Non-Composite   AutoType=None   RunCase=No
   Case=MODAL   Type=LinModal   InitialCond=Zero   DesTypeOpt="Prog Det"   DesignType=OTHER   DesActOpt="Prog Det"   DesignAct=Other   AutoType=None   RunCase=Yes
   Case=LOAD   Type=LinDirHist   InitialCond=Zero   DesTypeOpt="Prog Det"   DesignType=OTHER   DesActOpt="Prog Det"   DesignAct="Short-Term Composite"   AutoType=None   RunCase=Yes
 
TABLE:  "LOAD PATTERN DEFINITIONS"
   LoadPat=DEAD   DesignType=DEAD   SelfWtMult=1   GUID=854714b6-e101-46ef-a4c7-2be736fdca94
   LoadPat=LOAD   DesignType=OTHER   SelfWtMult=0   GUID=f69ec53d-8f68-4b74-8ef7-d6324221ed39
 
TABLE:  "MASS SOURCE"
   MassSource=MSSSRC1   Elements=Yes   Masses=Yes   Loads=No   IsDefault=Yes
 
TABLE:  "MATERIAL PROPERTIES 01 - GENERAL"
   Material=4000Psi-1   Type=Concrete   SymType=Isotropic   TempDepend=No   Color=Blue   Notes="Customary f'c 4000 psi 11/27/2017 10:23:24 AM"
   Material=A416Gr270   Type=Tendon   SymType=Uniaxial   TempDepend=No   Color=Cyan   Notes="ASTM A416 Grade 270 11/27/2017 10:23:24 AM"
   Material=A615Gr60   Type=Rebar   SymType=Uniaxial   TempDepend=No   Color=Green   Notes="ASTM A615 Grade 60 11/27/2017 10:23:24 AM"
   Material=mat   Type=Steel   SymType=Isotropic   TempDepend=No   Color=Cyan   Notes="ASTM A992 Grade 50 11/27/2017 10:20:18 AM"
 
TABLE:  "MATERIAL PROPERTIES 02 - BASIC MECHANICAL PROPERTIES"
   Material=4000Psi-1   UnitWeight=0.0235631216161854   UnitMass=2.40276960558926E-05   E1=2485557.80600518   G12=1035649.08583549   U12=0.2   A1=9.89999952793124E-06
   Material=A416Gr270   UnitWeight=0.0769728639422648   UnitMass=7.84904737995992E-05   E1=19650059.98512   A1=1.16999994421006E-05
   Material=A615Gr60   UnitWeight=0.0769728639422648   UnitMass=7.84904737995992E-05   E1=19994797.8795958   A1=1.16999994421006E-05
   Material=mat   UnitWeight=0.0770802705689073   UnitMass=7.86E-05   E1=20000000   G12=7751937.98449612   U12=0.29   A1=1.16999994421006E-05
 
TABLE:  "MATERIAL PROPERTIES 03A - STEEL DATA"
   Material=mat   Fy=34473.7894475789   Fu=44815.9262818526   EffFy=37921.1683923368   EffFu=49297.5189100378   SSCurveOpt=Simple   SSHysType=Kinematic   SHard=0.015   SMax=0.11   SRup=0.17   FinalSlope=-0.1
 
TABLE:  "MATERIAL PROPERTIES 03B - CONCRETE DATA"
   Material=4000Psi-1   Fc=2757.90315580631   LtWtConc=No   SSCurveOpt=Mander   SSHysType=Takeda   SFc=0.00221914   SCap=0.005   FinalSlope=-0.1   FAngle=0   DAngle=0
 
TABLE:  "MATERIAL PROPERTIES 03E - REBAR DATA"
   Material=A615Gr60   Fy=41368.5473370947   Fu=62052.821005642   EffFy=45505.4020708042   EffFu=68258.1031062062   SSCurveOpt=Simple   SSHysType=Kinematic   SHard=0.01   SCap=0.09   FinalSlope=-0.1   UseCTDef=No
 
TABLE:  "MATERIAL PROPERTIES 03F - TENDON DATA"
   Material=A416Gr270   Fy=168990.515872032   Fu=186158.463016926   SSCurveOpt="270 ksi"   SSHysType=Kinematic   FinalSlope=-0.1
 
TABLE:  "MATERIAL PROPERTIES 06 - DAMPING PARAMETERS"
   Material=4000Psi-1   ModalRatio=0   VisMass=0   VisStiff=0   HysMass=0   HysStiff=0
   Material=A416Gr270   ModalRatio=0   VisMass=0   VisStiff=0   HysMass=0   HysStiff=0
   Material=A615Gr60   ModalRatio=0   VisMass=0   VisStiff=0   HysMass=0   HysStiff=0
   Material=mat   ModalRatio=0   VisMass=0   VisStiff=0   HysMass=0   HysStiff=0
 
TABLE:  "OPTIONS - COLORS - DISPLAY"
   DeviceType=Screen   Points=Blue   LinesFrame=Blue   LinesFrmDL=Blue   LinesCable=Green   LinesTendon=Green   SpringLinks=Green   Restraints=Green   Releases=Green   Axes=Cyan   Text=Black   ShadowLines=Gray8Dark   GuideLines=Gray8Dark _
        Highlight=Red   Selection=10504778   AreaFillBot=Red   AreaFillTop=16744703   AreaFillSd=Red   AreaEdge=DarkRed   SolidF1=Red   SolidF2=Blue   SolidF3=Green   SolidF4=Yellow   SolidF5=White   SolidF6=Cyan   SolidEdge=DarkRed _
        Floor=Gray4   Background=White   BGLowLeft=White   BGLowRight=White   BGUpRight=White   Darkness=0.5
   DeviceType=Printer   Points=Gray8Dark   LinesFrame=Black   LinesFrmDL=Gray4   LinesCable=Black   LinesTendon=Black   SpringLinks=Gray8Dark   Restraints=Gray8Dark   Releases=Gray4   Axes=Black   Text=Black   ShadowLines=Gray4 _
        GuideLines=Gray4   Highlight=Black   Selection=Black   AreaFillBot=Gray4   AreaFillTop=Gray8Dark   AreaFillSd=Gray4   AreaEdge=Black   SolidF1=Gray1Light   SolidF2=Gray2   SolidF3=Gray3   SolidF4=Gray4   SolidF5=Gray5 _
        SolidF6=Gray6   SolidEdge=Black   Floor=Gray4   Background=White   BGLowLeft=White   BGLowRight=White   BGUpRight=White   Darkness=0.5
   DeviceType="Color Printer"   Points=Blue   LinesFrame=Blue   LinesFrmDL=Blue   LinesCable=Green   LinesTendon=Green   SpringLinks=Green   Restraints=Green   Releases=Green   Axes=Cyan   Text=Black   ShadowLines=Gray8Dark _
        GuideLines=Gray8Dark   Highlight=Red   Selection=10504778   AreaFillBot=Red   AreaFillTop=16744703   AreaFillSd=Red   AreaEdge=DarkRed   SolidF1=Red   SolidF2=Blue   SolidF3=Green   SolidF4=Yellow   SolidF5=White   SolidF6=Cyan _
        SolidEdge=DarkRed   Floor=Gray4   Background=White   BGLowLeft=White   BGLowRight=White   BGUpRight=White   Darkness=0.5
 
TABLE:  "OPTIONS - COLORS - OUTPUT"
   DeviceType=Screen   Contour1=13107400   Contour2=6553828   Contour3=Red   Contour4=16639   Contour5=Orange   Contour6=43775   Contour7=54527   Contour8=Yellow   Contour9=65408   Contour10=Green   Contour11=8453888   Contour12=Cyan _
        Contour13=16755200   Contour14=16733440   Contour15=Blue   Transpare=0.5   Ratio1=Cyan   Ratio2=Green   Ratio3=Yellow   Ratio4=Orange   Ratio5=Red   RatioNotD=Gray4   RatioNotC=Red   RatioVal1=0.5   RatioVal2=0.7   RatioVal3=0.9 _
        RatioVal4=1   DFillPos=Blue   DFillNeg=Red   DFillRPos=Green   DFillRNeg=Green
   DeviceType=Printer   Contour1=Black   Contour2=3158064   Contour3=4210752   Contour4=5263440   Contour5=6316128   Contour6=7368816   Contour7=Gray8Dark   Contour8=Gray7   Contour9=Gray6   Contour10=Gray5   Contour11=Gray4 _
        Contour12=Gray3   Contour13=Gray2   Contour14=Gray1Light   Contour15=White   Transpare=0   Ratio1=Gray2   Ratio2=Gray4   Ratio3=Gray8Dark   Ratio4=4210752   Ratio5=Black   RatioNotD=Gray4   RatioNotC=Black   RatioVal1=0.5 _
        RatioVal2=0.7   RatioVal3=0.9   RatioVal4=1   DFillPos=Gray8Dark   DFillNeg=Gray8Dark   DFillRPos=4210752   DFillRNeg=4210752
   DeviceType="Color Printer"   Contour1=13107400   Contour2=6553828   Contour3=Red   Contour4=16639   Contour5=Orange   Contour6=43775   Contour7=54527   Contour8=Yellow   Contour9=65408   Contour10=Green   Contour11=8453888 _
        Contour12=Cyan   Contour13=16755200   Contour14=16733440   Contour15=Blue   Transpare=0   Ratio1=Cyan   Ratio2=Green   Ratio3=Yellow   Ratio4=Orange   Ratio5=Red   RatioNotD=Gray4   RatioNotC=Red   RatioVal1=0.5   RatioVal2=0.7 _
        RatioVal3=0.9   RatioVal4=1   DFillPos=Blue   DFillNeg=Red   DFillRPos=Green   DFillRNeg=Green
 
TABLE:  "PREFERENCES - ALUMINUM DESIGN - AA-ASD 2000"
   THDesign=Envelopes   FrameType="Moment Frame"   SRatioLimit=1   MaxIter=1   LatFact=1.33333333333333   UseLatFact=No   Bridge=No
 
TABLE:  "PREFERENCES - COLD FORMED DESIGN - AISI-ASD96"
   THDesign=Envelopes   FrameType="Braced Frame"   SRatioLimit=1   MaxIter=1   OmegaBS=1.67   OmegaBUS=1.67   OmegaBLTB=1.67   OmegaVS=1.67   OmegaVNS=1.5   OmegaT=1.67   OmegaC=1.8
 
TABLE:  "PREFERENCES - CONCRETE DESIGN - ACI 318-14"
   THDesign=Envelopes   NumCurves=24   NumPoints=11   MinEccen=Yes   PatLLF=0.75   UFLimit=0.95   SeisCat=D   PhiT=0.9   PhiCTied=0.65   PhiCSpiral=0.75   PhiV=0.75   PhiVSeismic=0.6   PhiVJoint=0.85
 
TABLE:  "PREFERENCES - DIMENSIONAL"
   MergeTol=0.1   FineGrid=25   Nudge=25   SelectTol=3   SnapTol=12   SLineThick=2   PLineThick=4   MaxFont=8   MinFont=3   AutoZoom=10   ShrinkFact=70   TextFileLen=240
 
TABLE:  "PREFERENCES - STEEL DESIGN - AISC 360-10"
   THDesign=Envelopes   FrameType=SMF   PatLLF=0.75   SRatioLimit=0.95   MaxIter=1   SDC=D   SeisCode=Yes   SeisLoad=Yes   ImpFactor=1   SystemRho=1   SystemSds=0.5   SystemR=8   SystemCd=5.5   Omega0=3   Provision=LRFD _
        AMethod="Direct Analysis"   SOMethod="General 2nd Order"   SRMethod="Tau-b Fixed"   NLCoeff=0.002   PhiB=0.9   PhiC=0.9   PhiTY=0.9   PhiTF=0.75   PhiV=0.9   PhiVRolledI=1   PhiVT=0.9   PlugWeld=Yes   HSSWelding=ERW   HSSReduceT=No _
        CheckDefl=No   DLRat=120   SDLAndLLRat=120   LLRat=360   TotalRat=240   NetRat=240
 
TABLE:  "PROGRAM CONTROL"
   ProgramName=SAP2000   Version=17.3.0   CurrUnits="N, cm, C"   SteelCode="AISC 360-10"   ConcCode="ACI 318-14"   AlumCode="AA-ASD 2000"   ColdCode=AISI-ASD96   RegenHinge=Yes
 
TABLE:  "PROJECT INFORMATION"
   Item="Company Name"   Data="Computers and Structures, Inc."
   Item="Client Name"
   Item="Project Name"
   Item="Project Number"
   Item="Model Name"
   Item="Model Description"
   Item="Revision Number"
   Item="Frame Type"
   Item=Engineer
   Item=Checker
   Item=Supervisor
   Item="Issue Code"
   Item="Design Code"
 
TABLE:  "REBAR SIZES"
   RebarID=#2   Area=0.32258   Diameter=0.635
   RebarID=#3   Area=0.709675996154547   Diameter=0.9525
   RebarID=#4   Area=1.29032001922727   Diameter=1.27
   RebarID=#5   Area=1.99999601538181   Diameter=1.5875
   RebarID=#6   Area=2.83870398461819   Diameter=1.905
   RebarID=#7   Area=3.87096015381813   Diameter=2.2225
   RebarID=#8   Area=5.09676413843632   Diameter=2.54
   RebarID=#9   Area=6.4516   Diameter=2.86512005329132
   RebarID=#10   Area=8.1935318769455   Diameter=3.22579995155334
   RebarID=#11   Area=10.0644956308365   Diameter=3.58139991521835
   RebarID=#14   Area=14.5161   Diameter=4.30021989583969
   RebarID=#18   Area=25.8064   Diameter=5.73277992248535
   RebarID=10M   Area=1.00000002655387   Diameter=1.1300000667572
   RebarID=15M   Area=2.00000005310774   Diameter=1.59999999403954
   RebarID=20M   Area=3.00000017579794   Diameter=1.94999997854233
   RebarID=25M   Area=5.00000022890568   Diameter=2.52000016093254
   RebarID=30M   Area=7.00000008974075   Diameter=2.99000008821487
   RebarID=35M   Area=10.0000004578114   Diameter=3.57000011444092
   RebarID=45M   Area=15.0000010712624   Diameter=4.37000003576279
   RebarID=55M   Area=25.0000007599831   Diameter=5.64000033855438
   RebarID=6d   Area=0.283000004149973   Diameter=0.600000016689301
   RebarID=8d   Area=0.502999995571375   Diameter=0.799999997019768
   RebarID=10d   Area=0.785000013634563   Diameter=0.999999977350235
   RebarID=12d   Area=1.13000009249449   Diameter=1.2000000333786
   RebarID=14d   Area=1.54000010818839   Diameter=1.40000008940697
   RebarID=16d   Area=2.01000015431643   Diameter=1.59999999403954
   RebarID=20d   Area=3.14000005453825   Diameter=1.99999995470047
   RebarID=25d   Area=4.91000008711815   Diameter=2.50000001907349
   RebarID=26d   Area=5.31000029001236   Diameter=2.59999997138977
   RebarID=28d   Area=6.16000043275356   Diameter=2.80000017881393
   RebarID=N12   Area=1.13000009249449   Diameter=1.2000000333786
   RebarID=N16   Area=2.01000015431643   Diameter=1.59999999403954
   RebarID=N20   Area=3.14000005453825   Diameter=1.99999995470047
   RebarID=N24   Area=4.52000036997795   Diameter=2.4000000667572
   RebarID=N28   Area=6.16000043275356   Diameter=2.80000017881393
   RebarID=N32   Area=8.0400006172657   Diameter=3.19999998807907
   RebarID=N36   Area=10.2000001747131   Diameter=3.6000001001358
 
TABLE:  "SECTION DESIGNER PROPERTIES 01 - GENERAL"
   SectionName=sec   DesignType="No Check/Design"   DsgnOrChck=Check   IncludeVStr=No
 
TABLE:  "SECTION DESIGNER PROPERTIES 12 - SHAPE SOLID RECTANGLE"
   SectionName=sec   ShapeName=Rectangle1   ShapeMat=mat   ZOrder=1   FillColor=4210752   XCenter=0   YCenter=0   Height=11   Width=11   Rotation=0   Reinforcing=No
 
TABLE:  "SECTION DESIGNER PROPERTIES 30 - FIBER GENERAL"
   SectionName=sec   NumFibersD2=3   NumFibersD3=3   CoordSys=Cartesian   GridAngle=0   LumpRebar=No   FiberPMM=No   FiberMC=No
 
END TABLE DATA
