File C:\Users\ses516\Desktop\Adv. FE\Project\Finals - DYNAMIC\SAP\EX3.$2k was saved on 12/7/17 at 11:28:15
 
TABLE:  "ACTIVE DEGREES OF FREEDOM"
   UX=Yes   UY=No   UZ=Yes   RX=No   RY=Yes   RZ=No
 
TABLE:  "ANALYSIS OPTIONS"
   Solver=Advanced   SolverProc=Auto   Force32Bit=No   StiffCase=MODAL   GeomMod=None
 
TABLE:  "AUTO WAVE 3 - WAVE CHARACTERISTICS - GENERAL"
   WaveChar=Default   WaveType="From Theory"   KinFactor=1   SWaterDepth=4500   WaveHeight=1800   WavePeriod=12   WaveTheory=Linear
 
TABLE:  "CASE - DIRECT HISTORY 1 - GENERAL"
   Case=DEAD   OutSteps=1000   StepSize=0.001
 
TABLE:  "CASE - DIRECT HISTORY 2 - LOAD ASSIGNMENTS"
   Case=DEAD   LoadType="Load pattern"   LoadName=DEAD   Function=FUNC1   LoadSF=1   TimeFactor=1   ArrivalTime=0
 
TABLE:  "CASE - DIRECT HISTORY 3 - PROPORTIONAL DAMPING"
   Case=DEAD   MassCoeff=0.5   StiffCoeff=0.5
 
TABLE:  "CASE - DIRECT HISTORY 4 - INTEGRATION PARAMETERS"
   Case=DEAD   IntMethod=HilberHughesTaylor   Gamma=0.5   Beta=0.25   Alpha=0
 
TABLE:  "CASE - MODAL 1 - GENERAL"
   Case=MODAL   ModeType=Eigen   MaxNumModes=12   MinNumModes=1   EigenShift=0   EigenCutoff=0   EigenTol=1E-09   AutoShift=Yes
 
TABLE:  "CONNECTIVITY - FRAME"
   Frame=10   JointI=1   JointJ=9   IsCurved=No   GUID=c4d649a4-95f8-4b61-bcdc-20f4c551c909
   Frame=11   JointI=9   JointJ=2   IsCurved=No   GUID=d814e345-5761-4a5e-a803-16329d86d96b
   Frame=12   JointI=2   JointJ=10   IsCurved=No   GUID=1ed029bc-d74c-42c2-9a17-bba7c0e448d7
   Frame=13   JointI=10   JointJ=3   IsCurved=No   GUID=d5900788-3620-4e1a-a4b3-f6954f4c72af
   Frame=14   JointI=3   JointJ=11   IsCurved=No   GUID=6f7d16e7-ec3d-4115-b464-e90123b66783
   Frame=15   JointI=11   JointJ=4   IsCurved=No   GUID=c6d2d5fc-207b-490e-92ae-29cc6fc84fb1
   Frame=16   JointI=5   JointJ=12   IsCurved=No   GUID=0925d7b0-5d3f-458b-aad9-8dc04385f9dc
   Frame=17   JointI=12   JointJ=6   IsCurved=No   GUID=7a02c0ef-e553-49e3-86cb-788d06b489cf
   Frame=18   JointI=6   JointJ=13   IsCurved=No   GUID=efb182f7-74bc-4448-8f7a-974431c5bce6
   Frame=19   JointI=13   JointJ=7   IsCurved=No   GUID=5866b858-2cb3-4ebe-926c-ea58e2222490
   Frame=20   JointI=7   JointJ=14   IsCurved=No   GUID=ad4b4aee-3654-48e0-a96f-ef235b63f488
   Frame=21   JointI=14   JointJ=8   IsCurved=No   GUID=89eb64ce-dbb0-4624-8789-e47cea19773c
   Frame=22   JointI=2   JointJ=15   IsCurved=No   GUID=e0f35eb7-441f-42b1-b954-6e625af75241
   Frame=23   JointI=15   JointJ=16   IsCurved=No   GUID=c4095e80-3512-4fa4-b7b3-b83be001bdf1
   Frame=24   JointI=16   JointJ=6   IsCurved=No   GUID=e71c6443-13cb-41da-affe-38efb8faaa0a
   Frame=25   JointI=3   JointJ=17   IsCurved=No   GUID=c03dc81b-ac6d-44d3-9c70-2d45785bf790
   Frame=26   JointI=17   JointJ=18   IsCurved=No   GUID=3cbb2836-1d81-44a5-b05c-be4e9dcb65cd
   Frame=27   JointI=18   JointJ=7   IsCurved=No   GUID=9a7be186-01be-43ef-a29a-f52ad4c2008c
   Frame=28   JointI=4   JointJ=19   IsCurved=No   GUID=0182cd69-49dc-4e90-9981-3a05c08ae03f
   Frame=29   JointI=19   JointJ=20   IsCurved=No   GUID=decaf259-dd9e-410b-b4fe-bdc511f94435
   Frame=30   JointI=20   JointJ=8   IsCurved=No   GUID=f3accbad-ab15-4b4c-906a-ed94d9616f2f
 
TABLE:  "COORDINATE SYSTEMS"
   Name=GLOBAL   Type=Cartesian   X=0   Y=0   Z=0   AboutZ=0   AboutY=0   AboutX=0
 
TABLE:  "DATABASE DOCUMENTATION"
 
TABLE:  "DATABASE FORMAT TYPES"
   UnitsCurr=Yes   OverrideE=No
 
TABLE:  "FRAME AUTO MESH ASSIGNMENTS"
   Frame=10   AutoMesh=Yes   AtJoints=Yes   AtFrames=No   NumSegments=0   MaxLength=0   MaxDegrees=0
   Frame=11   AutoMesh=Yes   AtJoints=Yes   AtFrames=No   NumSegments=0   MaxLength=0   MaxDegrees=0
   Frame=12   AutoMesh=Yes   AtJoints=Yes   AtFrames=No   NumSegments=0   MaxLength=0   MaxDegrees=0
   Frame=13   AutoMesh=Yes   AtJoints=Yes   AtFrames=No   NumSegments=0   MaxLength=0   MaxDegrees=0
   Frame=14   AutoMesh=Yes   AtJoints=Yes   AtFrames=No   NumSegments=0   MaxLength=0   MaxDegrees=0
   Frame=15   AutoMesh=Yes   AtJoints=Yes   AtFrames=No   NumSegments=0   MaxLength=0   MaxDegrees=0
   Frame=16   AutoMesh=Yes   AtJoints=Yes   AtFrames=No   NumSegments=0   MaxLength=0   MaxDegrees=0
   Frame=17   AutoMesh=Yes   AtJoints=Yes   AtFrames=No   NumSegments=0   MaxLength=0   MaxDegrees=0
   Frame=18   AutoMesh=Yes   AtJoints=Yes   AtFrames=No   NumSegments=0   MaxLength=0   MaxDegrees=0
   Frame=19   AutoMesh=Yes   AtJoints=Yes   AtFrames=No   NumSegments=0   MaxLength=0   MaxDegrees=0
   Frame=20   AutoMesh=Yes   AtJoints=Yes   AtFrames=No   NumSegments=0   MaxLength=0   MaxDegrees=0
   Frame=21   AutoMesh=Yes   AtJoints=Yes   AtFrames=No   NumSegments=0   MaxLength=0   MaxDegrees=0
   Frame=22   AutoMesh=Yes   AtJoints=Yes   AtFrames=No   NumSegments=0   MaxLength=0   MaxDegrees=0
   Frame=23   AutoMesh=Yes   AtJoints=Yes   AtFrames=No   NumSegments=0   MaxLength=0   MaxDegrees=0
   Frame=24   AutoMesh=Yes   AtJoints=Yes   AtFrames=No   NumSegments=0   MaxLength=0   MaxDegrees=0
   Frame=25   AutoMesh=Yes   AtJoints=Yes   AtFrames=No   NumSegments=0   MaxLength=0   MaxDegrees=0
   Frame=26   AutoMesh=Yes   AtJoints=Yes   AtFrames=No   NumSegments=0   MaxLength=0   MaxDegrees=0
   Frame=27   AutoMesh=Yes   AtJoints=Yes   AtFrames=No   NumSegments=0   MaxLength=0   MaxDegrees=0
   Frame=28   AutoMesh=Yes   AtJoints=Yes   AtFrames=No   NumSegments=0   MaxLength=0   MaxDegrees=0
   Frame=29   AutoMesh=Yes   AtJoints=Yes   AtFrames=No   NumSegments=0   MaxLength=0   MaxDegrees=0
   Frame=30   AutoMesh=Yes   AtJoints=Yes   AtFrames=No   NumSegments=0   MaxLength=0   MaxDegrees=0
 
TABLE:  "FRAME DESIGN PROCEDURES"
   Frame=10   DesignProc="From Material"
   Frame=11   DesignProc="From Material"
   Frame=12   DesignProc="From Material"
   Frame=13   DesignProc="From Material"
   Frame=14   DesignProc="From Material"
   Frame=15   DesignProc="From Material"
   Frame=16   DesignProc="From Material"
   Frame=17   DesignProc="From Material"
   Frame=18   DesignProc="From Material"
   Frame=19   DesignProc="From Material"
   Frame=20   DesignProc="From Material"
   Frame=21   DesignProc="From Material"
   Frame=22   DesignProc="From Material"
   Frame=23   DesignProc="From Material"
   Frame=24   DesignProc="From Material"
   Frame=25   DesignProc="From Material"
   Frame=26   DesignProc="From Material"
   Frame=27   DesignProc="From Material"
   Frame=28   DesignProc="From Material"
   Frame=29   DesignProc="From Material"
   Frame=30   DesignProc="From Material"
 
TABLE:  "FRAME LOAD TRANSFER OPTIONS"
   Frame=10   Transfer=Yes
   Frame=11   Transfer=Yes
   Frame=12   Transfer=Yes
   Frame=13   Transfer=Yes
   Frame=14   Transfer=Yes
   Frame=15   Transfer=Yes
   Frame=16   Transfer=Yes
   Frame=17   Transfer=Yes
   Frame=18   Transfer=Yes
   Frame=19   Transfer=Yes
   Frame=20   Transfer=Yes
   Frame=21   Transfer=Yes
   Frame=22   Transfer=Yes
   Frame=23   Transfer=Yes
   Frame=24   Transfer=Yes
   Frame=25   Transfer=Yes
   Frame=26   Transfer=Yes
   Frame=27   Transfer=Yes
   Frame=28   Transfer=Yes
   Frame=29   Transfer=Yes
   Frame=30   Transfer=Yes
 
TABLE:  "FRAME OUTPUT STATION ASSIGNMENTS"
   Frame=10   StationType=MinNumSta   MinNumSta=3   AddAtElmInt=Yes   AddAtPtLoad=Yes
   Frame=11   StationType=MinNumSta   MinNumSta=3   AddAtElmInt=Yes   AddAtPtLoad=Yes
   Frame=12   StationType=MinNumSta   MinNumSta=3   AddAtElmInt=Yes   AddAtPtLoad=Yes
   Frame=13   StationType=MinNumSta   MinNumSta=3   AddAtElmInt=Yes   AddAtPtLoad=Yes
   Frame=14   StationType=MinNumSta   MinNumSta=3   AddAtElmInt=Yes   AddAtPtLoad=Yes
   Frame=15   StationType=MinNumSta   MinNumSta=3   AddAtElmInt=Yes   AddAtPtLoad=Yes
   Frame=16   StationType=MinNumSta   MinNumSta=3   AddAtElmInt=Yes   AddAtPtLoad=Yes
   Frame=17   StationType=MinNumSta   MinNumSta=3   AddAtElmInt=Yes   AddAtPtLoad=Yes
   Frame=18   StationType=MinNumSta   MinNumSta=3   AddAtElmInt=Yes   AddAtPtLoad=Yes
   Frame=19   StationType=MinNumSta   MinNumSta=3   AddAtElmInt=Yes   AddAtPtLoad=Yes
   Frame=20   StationType=MinNumSta   MinNumSta=3   AddAtElmInt=Yes   AddAtPtLoad=Yes
   Frame=21   StationType=MinNumSta   MinNumSta=3   AddAtElmInt=Yes   AddAtPtLoad=Yes
   Frame=22   StationType=MaxStaSpcg   MaxStaSpcg=50   AddAtElmInt=Yes   AddAtPtLoad=Yes
   Frame=23   StationType=MaxStaSpcg   MaxStaSpcg=50   AddAtElmInt=Yes   AddAtPtLoad=Yes
   Frame=24   StationType=MaxStaSpcg   MaxStaSpcg=50   AddAtElmInt=Yes   AddAtPtLoad=Yes
   Frame=25   StationType=MaxStaSpcg   MaxStaSpcg=50   AddAtElmInt=Yes   AddAtPtLoad=Yes
   Frame=26   StationType=MaxStaSpcg   MaxStaSpcg=50   AddAtElmInt=Yes   AddAtPtLoad=Yes
   Frame=27   StationType=MaxStaSpcg   MaxStaSpcg=50   AddAtElmInt=Yes   AddAtPtLoad=Yes
   Frame=28   StationType=MaxStaSpcg   MaxStaSpcg=50   AddAtElmInt=Yes   AddAtPtLoad=Yes
   Frame=29   StationType=MaxStaSpcg   MaxStaSpcg=50   AddAtElmInt=Yes   AddAtPtLoad=Yes
   Frame=30   StationType=MaxStaSpcg   MaxStaSpcg=50   AddAtElmInt=Yes   AddAtPtLoad=Yes
 
TABLE:  "FRAME SECTION ASSIGNMENTS"
   Frame=10   AutoSelect=N.A.   AnalSect=SEC   MatProp=Default
   Frame=11   AutoSelect=N.A.   AnalSect=SEC   MatProp=Default
   Frame=12   AutoSelect=N.A.   AnalSect=SEC   MatProp=Default
   Frame=13   AutoSelect=N.A.   AnalSect=SEC   MatProp=Default
   Frame=14   AutoSelect=N.A.   AnalSect=SEC   MatProp=Default
   Frame=15   AutoSelect=N.A.   AnalSect=SEC   MatProp=Default
   Frame=16   AutoSelect=N.A.   AnalSect=SEC   MatProp=Default
   Frame=17   AutoSelect=N.A.   AnalSect=SEC   MatProp=Default
   Frame=18   AutoSelect=N.A.   AnalSect=SEC   MatProp=Default
   Frame=19   AutoSelect=N.A.   AnalSect=SEC   MatProp=Default
   Frame=20   AutoSelect=N.A.   AnalSect=SEC   MatProp=Default
   Frame=21   AutoSelect=N.A.   AnalSect=SEC   MatProp=Default
   Frame=22   AutoSelect=N.A.   AnalSect=SEC   MatProp=Default
   Frame=23   AutoSelect=N.A.   AnalSect=SEC   MatProp=Default
   Frame=24   AutoSelect=N.A.   AnalSect=SEC   MatProp=Default
   Frame=25   AutoSelect=N.A.   AnalSect=SEC   MatProp=Default
   Frame=26   AutoSelect=N.A.   AnalSect=SEC   MatProp=Default
   Frame=27   AutoSelect=N.A.   AnalSect=SEC   MatProp=Default
   Frame=28   AutoSelect=N.A.   AnalSect=SEC   MatProp=Default
   Frame=29   AutoSelect=N.A.   AnalSect=SEC   MatProp=Default
   Frame=30   AutoSelect=N.A.   AnalSect=SEC   MatProp=Default
 
TABLE:  "FRAME SECTION PROPERTIES 01 - GENERAL"
   SectionName=FSEC1   Material=MAT   Shape="I/Wide Flange"   t3=30.48   t2=12.7   tf=0.9652   tw=0.635   t2b=12.7   tfb=0.9652   Area=42.645076   TorsConst=9.65117678053953   I33=6572.4174702235   I22=330.125717301008   I23=0   AS2=19.3548 _
        AS3=20.4300666666667   S33=431.26098885981   S22=51.9883019371667   Z33=491.1874950424   Z22=80.716532115   R33=12.4144683132414   R22=2.78230817990979   Color=Cyan   FromFile=No   AMod=1   A2Mod=1   A3Mod=1   JMod=1   I2Mod=1 _
        I3Mod=1   MMod=1   WMod=1   Notes="Added 11/29/2017 4:03:21 PM"
   SectionName=SEC   Material=MAT   Shape=General   t3=45.72   t2=25.4   Area=1600   TorsConst=1   I33=213000   I22=1   I23=0   AS2=1600   AS3=1600   S33=1   S22=1   Z33=1   Z22=1   R33=1   R22=1   EccV2=0   Color=Green   FromFile=No _
        AMod=1   A2Mod=1   A3Mod=1   JMod=1   I2Mod=1   I3Mod=1   MMod=1   WMod=1   Notes="Added 11/29/2017 4:05:29 PM"
 
TABLE:  "FRAME SECTION PROPERTIES 13 - TIME DEPENDENT"
   SectionName=FSEC1   TypeSize=Auto   AutoSFSize=1
   SectionName=SEC   TypeSize=None
 
TABLE:  "FUNCTION - PLOT FUNCTIONS"
   PlotFunc="Input Energy"   Type=Energy   Component=Input   Mode=All
   PlotFunc=Joint8   Type=Joint   ObjectLabel=8   Component=RelDispU1   Mode=All
 
TABLE:  "FUNCTION - POWER SPECTRAL DENSITY - USER"
   Name=UNIFPSD   Frequency=0   Value=1
   Name=UNIFPSD   Frequency=1   Value=1
 
TABLE:  "FUNCTION - RESPONSE SPECTRUM - USER"
   Name=UNIFRS   Period=0   Accel=1   FuncDamp=0.05
   Name=UNIFRS   Period=1   Accel=1
 
TABLE:  "FUNCTION - STEADY STATE - USER"
   Name=UNIFSS   Frequency=0   Value=1
   Name=UNIFSS   Frequency=1   Value=1
 
TABLE:  "FUNCTION - TIME HISTORY - USER"
   Name=RAMPTH   Time=0   Value=0
   Name=RAMPTH   Time=1   Value=1
   Name=RAMPTH   Time=4   Value=1
   Name=UNIFTH   Time=0   Value=1
   Name=UNIFTH   Time=1   Value=1
   Name=FUNC1   Time=0   Value=0
   Name=FUNC1   Time=0.1   Value=1
   Name=FUNC1   Time=0.2   Value=1
   Name=FUNC1   Time=0.201   Value=0
   Name=FUNC1   Time=1   Value=0
 
TABLE:  "GRID LINES"
   CoordSys=GLOBAL   AxisDir=X   GridID=A   XRYZCoord=-300   LineType=Primary   LineColor=Gray8Dark   Visible=Yes   BubbleLoc=End   AllVisible=Yes   BubbleSize=150
   CoordSys=GLOBAL   AxisDir=X   GridID=B   XRYZCoord=300   LineType=Primary   LineColor=Gray8Dark   Visible=Yes   BubbleLoc=End
   CoordSys=GLOBAL   AxisDir=Y   GridID=1   XRYZCoord=0   LineType=Primary   LineColor=Gray8Dark   Visible=Yes   BubbleLoc=Start
   CoordSys=GLOBAL   AxisDir=Z   GridID=Z1   XRYZCoord=0   LineType=Primary   LineColor=Gray8Dark   Visible=Yes   BubbleLoc=End
   CoordSys=GLOBAL   AxisDir=Z   GridID=Z2   XRYZCoord=400   LineType=Primary   LineColor=Gray8Dark   Visible=Yes   BubbleLoc=End
   CoordSys=GLOBAL   AxisDir=Z   GridID=Z3   XRYZCoord=720   LineType=Primary   LineColor=Gray8Dark   Visible=Yes   BubbleLoc=End
   CoordSys=GLOBAL   AxisDir=Z   GridID=Z4   XRYZCoord=1040   LineType=Primary   LineColor=Gray8Dark   Visible=Yes   BubbleLoc=End
 
TABLE:  "GROUPS 1 - DEFINITIONS"
   GroupName=ALL   Selection=Yes   SectionCut=Yes   Steel=Yes   Concrete=Yes   Aluminum=Yes   ColdFormed=Yes   Stage=Yes   Bridge=Yes   AutoSeismic=No   AutoWind=No   SelDesSteel=No   SelDesAlum=No   SelDesCold=No   MassWeight=Yes   Color=Red
 
TABLE:  "JOINT COORDINATES"
   Joint=1   CoordSys=GLOBAL   CoordType=Cartesian   XorR=-300   Y=0   Z=0   SpecialJt=No   GUID=0421c1b4-97c0-4a05-95e8-9cc0c32c6713
   Joint=2   CoordSys=GLOBAL   CoordType=Cartesian   XorR=-300   Y=0   Z=400   SpecialJt=No   GUID=0421c1b4-97c0-4a05-95e8-9cc0c32c6713
   Joint=3   CoordSys=GLOBAL   CoordType=Cartesian   XorR=-300   Y=0   Z=720   SpecialJt=No   GUID=0421c1b4-97c0-4a05-95e8-9cc0c32c6713
   Joint=4   CoordSys=GLOBAL   CoordType=Cartesian   XorR=-300   Y=0   Z=1040   SpecialJt=No   GUID=0421c1b4-97c0-4a05-95e8-9cc0c32c6713
   Joint=5   CoordSys=GLOBAL   CoordType=Cartesian   XorR=300   Y=0   Z=0   SpecialJt=No   GUID=0421c1b4-97c0-4a05-95e8-9cc0c32c6713
   Joint=6   CoordSys=GLOBAL   CoordType=Cartesian   XorR=300   Y=0   Z=400   SpecialJt=No   GUID=0421c1b4-97c0-4a05-95e8-9cc0c32c6713
   Joint=7   CoordSys=GLOBAL   CoordType=Cartesian   XorR=300   Y=0   Z=720   SpecialJt=No   GUID=0421c1b4-97c0-4a05-95e8-9cc0c32c6713
   Joint=8   CoordSys=GLOBAL   CoordType=Cartesian   XorR=300   Y=0   Z=1040   SpecialJt=No   GUID=0421c1b4-97c0-4a05-95e8-9cc0c32c6713
   Joint=9   CoordSys=GLOBAL   CoordType=Cartesian   XorR=-300   Y=0   Z=200   SpecialJt=No   GUID=0421c1b4-97c0-4a05-95e8-9cc0c32c6713
   Joint=10   CoordSys=GLOBAL   CoordType=Cartesian   XorR=-300   Y=0   Z=560   SpecialJt=No   GUID=0421c1b4-97c0-4a05-95e8-9cc0c32c6713
   Joint=11   CoordSys=GLOBAL   CoordType=Cartesian   XorR=-300   Y=0   Z=880   SpecialJt=No   GUID=0421c1b4-97c0-4a05-95e8-9cc0c32c6713
   Joint=12   CoordSys=GLOBAL   CoordType=Cartesian   XorR=300   Y=0   Z=200   SpecialJt=No   GUID=0421c1b4-97c0-4a05-95e8-9cc0c32c6713
   Joint=13   CoordSys=GLOBAL   CoordType=Cartesian   XorR=300   Y=0   Z=560   SpecialJt=No   GUID=0421c1b4-97c0-4a05-95e8-9cc0c32c6713
   Joint=14   CoordSys=GLOBAL   CoordType=Cartesian   XorR=300   Y=0   Z=880   SpecialJt=No   GUID=0421c1b4-97c0-4a05-95e8-9cc0c32c6713
   Joint=15   CoordSys=GLOBAL   CoordType=Cartesian   XorR=-100   Y=0   Z=400   SpecialJt=No   GUID=0421c1b4-97c0-4a05-95e8-9cc0c32c6713
   Joint=16   CoordSys=GLOBAL   CoordType=Cartesian   XorR=100   Y=0   Z=400   SpecialJt=No   GUID=0421c1b4-97c0-4a05-95e8-9cc0c32c6713
   Joint=17   CoordSys=GLOBAL   CoordType=Cartesian   XorR=-100   Y=0   Z=720   SpecialJt=No   GUID=0421c1b4-97c0-4a05-95e8-9cc0c32c6713
   Joint=18   CoordSys=GLOBAL   CoordType=Cartesian   XorR=100   Y=0   Z=720   SpecialJt=No   GUID=0421c1b4-97c0-4a05-95e8-9cc0c32c6713
   Joint=19   CoordSys=GLOBAL   CoordType=Cartesian   XorR=-100   Y=0   Z=1040   SpecialJt=No   GUID=0421c1b4-97c0-4a05-95e8-9cc0c32c6713
   Joint=20   CoordSys=GLOBAL   CoordType=Cartesian   XorR=100   Y=0   Z=1040   SpecialJt=No   GUID=0421c1b4-97c0-4a05-95e8-9cc0c32c6713
 
TABLE:  "JOINT LOADS - FORCE"
   Joint=4   LoadPat=DEAD   CoordSys=GLOBAL   F1=7000   F2=0   F3=0   M1=0   M2=0   M3=0   GUID=f612b6c6-c1ea-4dc5-a648-44d27268f291
 
TABLE:  "JOINT PATTERN DEFINITIONS"
   Pattern=Default
 
TABLE:  "JOINT RESTRAINT ASSIGNMENTS"
   Joint=1   U1=Yes   U2=Yes   U3=Yes   R1=Yes   R2=Yes   R3=Yes
   Joint=5   U1=Yes   U2=Yes   U3=Yes   R1=Yes   R2=Yes   R3=Yes
 
TABLE:  "LOAD CASE DEFINITIONS"
   Case=DEAD   Type=LinDirHist   InitialCond=Zero   DesTypeOpt="Prog Det"   DesignType=DEAD   DesActOpt="Prog Det"   DesignAct="Short-Term Composite"   AutoType=None   RunCase=Yes
   Case=MODAL   Type=LinModal   InitialCond=Zero   DesTypeOpt="Prog Det"   DesignType=OTHER   DesActOpt="Prog Det"   DesignAct=Other   AutoType=None   RunCase=Yes
 
TABLE:  "LOAD PATTERN DEFINITIONS"
   LoadPat=DEAD   DesignType=DEAD   SelfWtMult=0   GUID=bed1c12e-5262-46cb-a2f3-ea393c6aa6f1
 
TABLE:  "MASS SOURCE"
   MassSource=MSSSRC1   Elements=Yes   Masses=Yes   Loads=No   IsDefault=Yes
 
TABLE:  "MATERIAL PROPERTIES 01 - GENERAL"
   Material=MAT   Type=Steel   SymType=Isotropic   TempDepend=No   Color=Cyan   Notes="ASTM A992 Grade 50 11/29/2017 4:02:26 PM"
 
TABLE:  "MATERIAL PROPERTIES 02 - BASIC MECHANICAL PROPERTIES"
   Material=MAT   UnitWeight=0.0769822040669112   UnitMass=7.85E-05   E1=21000000   G12=7692000   U12=0.365054602184087   A1=1.16999994421006E-05
 
TABLE:  "MATERIAL PROPERTIES 03A - STEEL DATA"
   Material=MAT   Fy=34473.7894475789   Fu=44815.9262818526   EffFy=37921.1683923368   EffFu=49297.5189100378   SSCurveOpt=Simple   SSHysType=Kinematic   SHard=0.015   SMax=0.11   SRup=0.17   FinalSlope=-0.1
 
TABLE:  "MATERIAL PROPERTIES 06 - DAMPING PARAMETERS"
   Material=MAT   ModalRatio=0   VisMass=0   VisStiff=0   HysMass=0   HysStiff=0
 
TABLE:  "OPTIONS - COLORS - DISPLAY"
   DeviceType=Screen   Points=Blue   LinesFrame=Blue   LinesFrmDL=Blue   LinesCable=Green   LinesTendon=Green   SpringLinks=Green   Restraints=Green   Releases=Green   Axes=Cyan   Text=Black   ShadowLines=Gray8Dark   GuideLines=Gray8Dark _
        Highlight=Red   Selection=10504778   AreaFillBot=Red   AreaFillTop=16744703   AreaFillSd=Red   AreaEdge=DarkRed   SolidF1=Red   SolidF2=Blue   SolidF3=Green   SolidF4=Yellow   SolidF5=White   SolidF6=Cyan   SolidEdge=DarkRed _
        Floor=Gray4   Background=White   BGLowLeft=White   BGLowRight=White   BGUpRight=White   Darkness=0.5
   DeviceType=Printer   Points=Gray8Dark   LinesFrame=Black   LinesFrmDL=Gray4   LinesCable=Black   LinesTendon=Black   SpringLinks=Gray8Dark   Restraints=Gray8Dark   Releases=Gray4   Axes=Black   Text=Black   ShadowLines=Gray4 _
        GuideLines=Gray4   Highlight=Black   Selection=Black   AreaFillBot=Gray4   AreaFillTop=Gray8Dark   AreaFillSd=Gray4   AreaEdge=Black   SolidF1=Gray1Light   SolidF2=Gray2   SolidF3=Gray3   SolidF4=Gray4   SolidF5=Gray5 _
        SolidF6=Gray6   SolidEdge=Black   Floor=Gray4   Background=White   BGLowLeft=White   BGLowRight=White   BGUpRight=White   Darkness=0.5
   DeviceType="Color Printer"   Points=Blue   LinesFrame=Blue   LinesFrmDL=Blue   LinesCable=Green   LinesTendon=Green   SpringLinks=Green   Restraints=Green   Releases=Green   Axes=Cyan   Text=Black   ShadowLines=Gray8Dark _
        GuideLines=Gray8Dark   Highlight=Red   Selection=10504778   AreaFillBot=Red   AreaFillTop=16744703   AreaFillSd=Red   AreaEdge=DarkRed   SolidF1=Red   SolidF2=Blue   SolidF3=Green   SolidF4=Yellow   SolidF5=White   SolidF6=Cyan _
        SolidEdge=DarkRed   Floor=Gray4   Background=White   BGLowLeft=White   BGLowRight=White   BGUpRight=White   Darkness=0.5
 
TABLE:  "OPTIONS - COLORS - OUTPUT"
   DeviceType=Screen   Contour1=13107400   Contour2=6553828   Contour3=Red   Contour4=16639   Contour5=Orange   Contour6=43775   Contour7=54527   Contour8=Yellow   Contour9=65408   Contour10=Green   Contour11=8453888   Contour12=Cyan _
        Contour13=16755200   Contour14=16733440   Contour15=Blue   Transpare=0.5   Ratio1=Cyan   Ratio2=Green   Ratio3=Yellow   Ratio4=Orange   Ratio5=Red   RatioNotD=Gray4   RatioNotC=Red   RatioVal1=0.5   RatioVal2=0.7   RatioVal3=0.9 _
        RatioVal4=1   DFillPos=Blue   DFillNeg=Red   DFillRPos=Green   DFillRNeg=Green
   DeviceType=Printer   Contour1=Black   Contour2=3158064   Contour3=4210752   Contour4=5263440   Contour5=6316128   Contour6=7368816   Contour7=Gray8Dark   Contour8=Gray7   Contour9=Gray6   Contour10=Gray5   Contour11=Gray4 _
        Contour12=Gray3   Contour13=Gray2   Contour14=Gray1Light   Contour15=White   Transpare=0   Ratio1=Gray2   Ratio2=Gray4   Ratio3=Gray8Dark   Ratio4=4210752   Ratio5=Black   RatioNotD=Gray4   RatioNotC=Black   RatioVal1=0.5 _
        RatioVal2=0.7   RatioVal3=0.9   RatioVal4=1   DFillPos=Gray8Dark   DFillNeg=Gray8Dark   DFillRPos=4210752   DFillRNeg=4210752
   DeviceType="Color Printer"   Contour1=13107400   Contour2=6553828   Contour3=Red   Contour4=16639   Contour5=Orange   Contour6=43775   Contour7=54527   Contour8=Yellow   Contour9=65408   Contour10=Green   Contour11=8453888 _
        Contour12=Cyan   Contour13=16755200   Contour14=16733440   Contour15=Blue   Transpare=0   Ratio1=Cyan   Ratio2=Green   Ratio3=Yellow   Ratio4=Orange   Ratio5=Red   RatioNotD=Gray4   RatioNotC=Red   RatioVal1=0.5   RatioVal2=0.7 _
        RatioVal3=0.9   RatioVal4=1   DFillPos=Blue   DFillNeg=Red   DFillRPos=Green   DFillRNeg=Green
 
TABLE:  "PREFERENCES - ALUMINUM DESIGN - AA-ASD 2000"
   THDesign=Envelopes   FrameType="Moment Frame"   SRatioLimit=1   MaxIter=1   LatFact=1.33333333333333   UseLatFact=No   Bridge=No
 
TABLE:  "PREFERENCES - COLD FORMED DESIGN - AISI-ASD96"
   THDesign=Envelopes   FrameType="Braced Frame"   SRatioLimit=1   MaxIter=1   OmegaBS=1.67   OmegaBUS=1.67   OmegaBLTB=1.67   OmegaVS=1.67   OmegaVNS=1.5   OmegaT=1.67   OmegaC=1.8
 
TABLE:  "PREFERENCES - CONCRETE DESIGN - ACI 318-14"
   THDesign=Envelopes   NumCurves=24   NumPoints=11   MinEccen=Yes   PatLLF=0.75   UFLimit=0.95   SeisCat=D   PhiT=0.9   PhiCTied=0.65   PhiCSpiral=0.75   PhiV=0.75   PhiVSeismic=0.6   PhiVJoint=0.85
 
TABLE:  "PREFERENCES - DIMENSIONAL"
   MergeTol=0.1   FineGrid=25   Nudge=25   SelectTol=3   SnapTol=12   SLineThick=2   PLineThick=4   MaxFont=8   MinFont=3   AutoZoom=10   ShrinkFact=70   TextFileLen=240
 
TABLE:  "PREFERENCES - STEEL DESIGN - AISC 360-10"
   THDesign=Envelopes   FrameType=SMF   PatLLF=0.75   SRatioLimit=0.95   MaxIter=1   SDC=D   SeisCode=Yes   SeisLoad=Yes   ImpFactor=1   SystemRho=1   SystemSds=0.5   SystemR=8   SystemCd=5.5   Omega0=3   Provision=LRFD _
        AMethod="Direct Analysis"   SOMethod="General 2nd Order"   SRMethod="Tau-b Fixed"   NLCoeff=0.002   PhiB=0.9   PhiC=0.9   PhiTY=0.9   PhiTF=0.75   PhiV=0.9   PhiVRolledI=1   PhiVT=0.9   PlugWeld=Yes   HSSWelding=ERW   HSSReduceT=No _
        CheckDefl=No   DLRat=120   SDLAndLLRat=120   LLRat=360   TotalRat=240   NetRat=240
 
TABLE:  "PROGRAM CONTROL"
   ProgramName=SAP2000   Version=17.3.0   CurrUnits="N, cm, C"   SteelCode="AISC 360-10"   ConcCode="ACI 318-14"   AlumCode="AA-ASD 2000"   ColdCode=AISI-ASD96   RegenHinge=Yes
 
TABLE:  "PROJECT INFORMATION"
   Item="Company Name"   Data="Computers and Structures, Inc."
   Item="Client Name"
   Item="Project Name"
   Item="Project Number"
   Item="Model Name"
   Item="Model Description"
   Item="Revision Number"
   Item="Frame Type"
   Item=Engineer
   Item=Checker
   Item=Supervisor
   Item="Issue Code"
   Item="Design Code"
 
TABLE:  "REBAR SIZES"
   RebarID=#2   Area=0.32258   Diameter=0.635
   RebarID=#3   Area=0.709675996154547   Diameter=0.9525
   RebarID=#4   Area=1.29032001922727   Diameter=1.27
   RebarID=#5   Area=1.99999601538181   Diameter=1.5875
   RebarID=#6   Area=2.83870398461819   Diameter=1.905
   RebarID=#7   Area=3.87096015381813   Diameter=2.2225
   RebarID=#8   Area=5.09676413843632   Diameter=2.54
   RebarID=#9   Area=6.4516   Diameter=2.86512005329132
   RebarID=#10   Area=8.1935318769455   Diameter=3.22579995155334
   RebarID=#11   Area=10.0644956308365   Diameter=3.58139991521835
   RebarID=#14   Area=14.5161   Diameter=4.30021989583969
   RebarID=#18   Area=25.8064   Diameter=5.73277992248535
   RebarID=10M   Area=1.00000002655387   Diameter=1.1300000667572
   RebarID=15M   Area=2.00000005310774   Diameter=1.59999999403954
   RebarID=20M   Area=3.00000017579794   Diameter=1.94999997854233
   RebarID=25M   Area=5.00000022890568   Diameter=2.52000016093254
   RebarID=30M   Area=7.00000008974075   Diameter=2.99000008821487
   RebarID=35M   Area=10.0000004578114   Diameter=3.57000011444092
   RebarID=45M   Area=15.0000010712624   Diameter=4.37000003576279
   RebarID=55M   Area=25.0000007599831   Diameter=5.64000033855438
   RebarID=6d   Area=0.283000004149973   Diameter=0.600000016689301
   RebarID=8d   Area=0.502999995571375   Diameter=0.799999997019768
   RebarID=10d   Area=0.785000013634563   Diameter=0.999999977350235
   RebarID=12d   Area=1.13000009249449   Diameter=1.2000000333786
   RebarID=14d   Area=1.54000010818839   Diameter=1.40000008940697
   RebarID=16d   Area=2.01000015431643   Diameter=1.59999999403954
   RebarID=20d   Area=3.14000005453825   Diameter=1.99999995470047
   RebarID=25d   Area=4.91000008711815   Diameter=2.50000001907349
   RebarID=26d   Area=5.31000029001236   Diameter=2.59999997138977
   RebarID=28d   Area=6.16000043275356   Diameter=2.80000017881393
   RebarID=N12   Area=1.13000009249449   Diameter=1.2000000333786
   RebarID=N16   Area=2.01000015431643   Diameter=1.59999999403954
   RebarID=N20   Area=3.14000005453825   Diameter=1.99999995470047
   RebarID=N24   Area=4.52000036997795   Diameter=2.4000000667572
   RebarID=N28   Area=6.16000043275356   Diameter=2.80000017881393
   RebarID=N32   Area=8.0400006172657   Diameter=3.19999998807907
   RebarID=N36   Area=10.2000001747131   Diameter=3.6000001001358
 
END TABLE DATA
