File C:\Users\ses516\Desktop\Adv. FE\Project\Finals - DYNAMIC\SAP\EX4.$2k was saved on 12/7/17 at 13:23:24
 
TABLE:  "ACTIVE DEGREES OF FREEDOM"
   UX=Yes   UY=No   UZ=Yes   RX=No   RY=Yes   RZ=No
 
TABLE:  "ANALYSIS OPTIONS"
   Solver=Advanced   SolverProc=Auto   Force32Bit=No   StiffCase=MODAL   GeomMod=None
 
TABLE:  "AUTO WAVE 3 - WAVE CHARACTERISTICS - GENERAL"
   WaveChar=Default   WaveType="From Theory"   KinFactor=1   SWaterDepth=4500   WaveHeight=1800   WavePeriod=12   WaveTheory=Linear
 
TABLE:  "CASE - DIRECT HISTORY 1 - GENERAL"
   Case=DEAD   OutSteps=1000   StepSize=0.005
 
TABLE:  "CASE - DIRECT HISTORY 2 - LOAD ASSIGNMENTS"
   Case=DEAD   LoadType="Load pattern"   LoadName=DEAD   Function=LOAD   LoadSF=1   TimeFactor=1   ArrivalTime=0
 
TABLE:  "CASE - DIRECT HISTORY 4 - INTEGRATION PARAMETERS"
   Case=DEAD   IntMethod=Newmark   Gamma=0.6   Beta=0.3025
 
TABLE:  "CASE - MODAL 1 - GENERAL"
   Case=MODAL   ModeType=Eigen   MaxNumModes=12   MinNumModes=1   EigenShift=0   EigenCutoff=0   EigenTol=1E-09   AutoShift=Yes
 
TABLE:  "CONNECTIVITY - FRAME"
   Frame=6   JointI=3   JointJ=7   IsCurved=No   GUID=5e360d97-17eb-41d0-90ba-4779c26378b8
   Frame=7   JointI=7   JointJ=8   IsCurved=No   GUID=eae381c3-134d-4060-a15d-c265594e1839
   Frame=8   JointI=8   JointJ=9   IsCurved=No   GUID=8a1f1eea-66bb-4577-98f9-da5f2e499d76
   Frame=9   JointI=9   JointJ=4   IsCurved=No   GUID=63131615-ac93-4ab4-8571-fe3c4140a334
   Frame=10   JointI=2   JointJ=10   IsCurved=No   GUID=9cc063b3-461f-4885-a849-0f78522d621f
   Frame=11   JointI=10   JointJ=11   IsCurved=No   GUID=b49c089e-df73-45fa-8e5c-58b5e6d40c28
   Frame=12   JointI=11   JointJ=12   IsCurved=No   GUID=83c38632-71dc-4285-b817-47713680f0bd
   Frame=13   JointI=12   JointJ=4   IsCurved=No   GUID=885a73aa-d3b7-4d2b-b30f-2d1359349d48
   Frame=14   JointI=4   JointJ=13   IsCurved=No   GUID=d7b9eed9-2ca4-4c8d-bfcc-1cb8eb6d0253
   Frame=15   JointI=13   JointJ=14   IsCurved=No   GUID=241e5f2f-e703-4d92-a25a-a5cc68bbb9f1
   Frame=16   JointI=14   JointJ=15   IsCurved=No   GUID=caa51b1a-c8be-49b0-aaac-9976e21f301e
   Frame=17   JointI=15   JointJ=6   IsCurved=No   GUID=db439eef-8bc3-4db3-8eed-e4898cfade36
 
TABLE:  "COORDINATE SYSTEMS"
   Name=GLOBAL   Type=Cartesian   X=0   Y=0   Z=0   AboutZ=0   AboutY=0   AboutX=0
 
TABLE:  "DATABASE DOCUMENTATION"
 
TABLE:  "DATABASE FORMAT TYPES"
   UnitsCurr=Yes   OverrideE=No
 
TABLE:  "FRAME AUTO MESH ASSIGNMENTS"
   Frame=6   AutoMesh=Yes   AtJoints=Yes   AtFrames=No   NumSegments=0   MaxLength=0   MaxDegrees=0
   Frame=7   AutoMesh=Yes   AtJoints=Yes   AtFrames=No   NumSegments=0   MaxLength=0   MaxDegrees=0
   Frame=8   AutoMesh=Yes   AtJoints=Yes   AtFrames=No   NumSegments=0   MaxLength=0   MaxDegrees=0
   Frame=9   AutoMesh=Yes   AtJoints=Yes   AtFrames=No   NumSegments=0   MaxLength=0   MaxDegrees=0
   Frame=10   AutoMesh=Yes   AtJoints=Yes   AtFrames=No   NumSegments=0   MaxLength=0   MaxDegrees=0
   Frame=11   AutoMesh=Yes   AtJoints=Yes   AtFrames=No   NumSegments=0   MaxLength=0   MaxDegrees=0
   Frame=12   AutoMesh=Yes   AtJoints=Yes   AtFrames=No   NumSegments=0   MaxLength=0   MaxDegrees=0
   Frame=13   AutoMesh=Yes   AtJoints=Yes   AtFrames=No   NumSegments=0   MaxLength=0   MaxDegrees=0
   Frame=14   AutoMesh=Yes   AtJoints=Yes   AtFrames=No   NumSegments=0   MaxLength=0   MaxDegrees=0
   Frame=15   AutoMesh=Yes   AtJoints=Yes   AtFrames=No   NumSegments=0   MaxLength=0   MaxDegrees=0
   Frame=16   AutoMesh=Yes   AtJoints=Yes   AtFrames=No   NumSegments=0   MaxLength=0   MaxDegrees=0
   Frame=17   AutoMesh=Yes   AtJoints=Yes   AtFrames=No   NumSegments=0   MaxLength=0   MaxDegrees=0
 
TABLE:  "FRAME DESIGN PROCEDURES"
   Frame=6   DesignProc="From Material"
   Frame=7   DesignProc="From Material"
   Frame=8   DesignProc="From Material"
   Frame=9   DesignProc="From Material"
   Frame=10   DesignProc="From Material"
   Frame=11   DesignProc="From Material"
   Frame=12   DesignProc="From Material"
   Frame=13   DesignProc="From Material"
   Frame=14   DesignProc="From Material"
   Frame=15   DesignProc="From Material"
   Frame=16   DesignProc="From Material"
   Frame=17   DesignProc="From Material"
 
TABLE:  "FRAME LOAD TRANSFER OPTIONS"
   Frame=6   Transfer=Yes
   Frame=7   Transfer=Yes
   Frame=8   Transfer=Yes
   Frame=9   Transfer=Yes
   Frame=10   Transfer=Yes
   Frame=11   Transfer=Yes
   Frame=12   Transfer=Yes
   Frame=13   Transfer=Yes
   Frame=14   Transfer=Yes
   Frame=15   Transfer=Yes
   Frame=16   Transfer=Yes
   Frame=17   Transfer=Yes
 
TABLE:  "FRAME OUTPUT STATION ASSIGNMENTS"
   Frame=6   StationType=MinNumSta   MinNumSta=3   AddAtElmInt=Yes   AddAtPtLoad=Yes
   Frame=7   StationType=MinNumSta   MinNumSta=3   AddAtElmInt=Yes   AddAtPtLoad=Yes
   Frame=8   StationType=MinNumSta   MinNumSta=3   AddAtElmInt=Yes   AddAtPtLoad=Yes
   Frame=9   StationType=MinNumSta   MinNumSta=3   AddAtElmInt=Yes   AddAtPtLoad=Yes
   Frame=10   StationType=MaxStaSpcg   MaxStaSpcg=50   AddAtElmInt=Yes   AddAtPtLoad=Yes
   Frame=11   StationType=MaxStaSpcg   MaxStaSpcg=50   AddAtElmInt=Yes   AddAtPtLoad=Yes
   Frame=12   StationType=MaxStaSpcg   MaxStaSpcg=50   AddAtElmInt=Yes   AddAtPtLoad=Yes
   Frame=13   StationType=MaxStaSpcg   MaxStaSpcg=50   AddAtElmInt=Yes   AddAtPtLoad=Yes
   Frame=14   StationType=MaxStaSpcg   MaxStaSpcg=50   AddAtElmInt=Yes   AddAtPtLoad=Yes
   Frame=15   StationType=MaxStaSpcg   MaxStaSpcg=50   AddAtElmInt=Yes   AddAtPtLoad=Yes
   Frame=16   StationType=MaxStaSpcg   MaxStaSpcg=50   AddAtElmInt=Yes   AddAtPtLoad=Yes
   Frame=17   StationType=MaxStaSpcg   MaxStaSpcg=50   AddAtElmInt=Yes   AddAtPtLoad=Yes
 
TABLE:  "FRAME SECTION ASSIGNMENTS"
   Frame=6   AutoSelect=N.A.   AnalSect=FSEC2   MatProp=Default
   Frame=7   AutoSelect=N.A.   AnalSect=FSEC2   MatProp=Default
   Frame=8   AutoSelect=N.A.   AnalSect=FSEC2   MatProp=Default
   Frame=9   AutoSelect=N.A.   AnalSect=FSEC2   MatProp=Default
   Frame=10   AutoSelect=N.A.   AnalSect=FSEC2   MatProp=Default
   Frame=11   AutoSelect=N.A.   AnalSect=FSEC2   MatProp=Default
   Frame=12   AutoSelect=N.A.   AnalSect=FSEC2   MatProp=Default
   Frame=13   AutoSelect=N.A.   AnalSect=FSEC2   MatProp=Default
   Frame=14   AutoSelect=N.A.   AnalSect=FSEC2   MatProp=Default
   Frame=15   AutoSelect=N.A.   AnalSect=FSEC2   MatProp=Default
   Frame=16   AutoSelect=N.A.   AnalSect=FSEC2   MatProp=Default
   Frame=17   AutoSelect=N.A.   AnalSect=FSEC2   MatProp=Default
 
TABLE:  "FRAME SECTION PROPERTIES 01 - GENERAL"
   SectionName=FSEC1   Material=MAT   Shape="I/Wide Flange"   t3=30.48   t2=12.7   tf=0.9652   tw=0.635   t2b=12.7   tfb=0.9652   Area=42.645076   TorsConst=9.65117678053953   I33=6572.4174702235   I22=330.125717301008   I23=0   AS2=19.3548 _
        AS3=20.4300666666667   S33=431.26098885981   S22=51.9883019371667   Z33=491.1874950424   Z22=80.716532115   R33=12.4144683132414   R22=2.78230817990979   Color=Cyan   FromFile=No   AMod=1   A2Mod=1   A3Mod=1   JMod=1   I2Mod=1 _
        I3Mod=1   MMod=1   WMod=1   Notes="Added 12/4/2017 7:15:59 PM"
   SectionName=FSEC2   Material=MAT   Shape="I/Wide Flange"   t3=40   t2=25   tf=1.5   tw=0.8   t2b=25   tfb=1.5   Area=104.6   TorsConst=60.3524006666667   I33=31183.1166666667   I22=3907.82866666667   I23=0   AS2=32   AS3=62.5 _
        S33=1559.15583333333   S22=312.626293333333   Z33=1717.55   Z22=474.67   R33=17.2660867065858   R22=6.11226133988574   Color=Gray8Dark   FromFile=No   AMod=1   A2Mod=1   A3Mod=1   JMod=1   I2Mod=1   I3Mod=1   MMod=1   WMod=1   Notes="Added 12/4/2017 7:18:09 PM"
 
TABLE:  "FRAME SECTION PROPERTIES 13 - TIME DEPENDENT"
   SectionName=FSEC1   TypeSize=Auto   AutoSFSize=1
   SectionName=FSEC2   TypeSize=Auto   AutoSFSize=1
 
TABLE:  "FUNCTION - PLOT FUNCTIONS"
   PlotFunc="Input Energy"   Type=Energy   Component=Input   Mode=All
   PlotFunc=Joint2   Type=Joint   ObjectLabel=2   Component=RelDispU3   Mode=All
   PlotFunc=Joint6   Type=Joint   ObjectLabel=6   Component=RelDispU3   Mode=All
 
TABLE:  "FUNCTION - POWER SPECTRAL DENSITY - USER"
   Name=UNIFPSD   Frequency=0   Value=1
   Name=UNIFPSD   Frequency=1   Value=1
 
TABLE:  "FUNCTION - RESPONSE SPECTRUM - USER"
   Name=UNIFRS   Period=0   Accel=1   FuncDamp=0.05
   Name=UNIFRS   Period=1   Accel=1
 
TABLE:  "FUNCTION - STEADY STATE - USER"
   Name=UNIFSS   Frequency=0   Value=1
   Name=UNIFSS   Frequency=1   Value=1
 
TABLE:  "FUNCTION - TIME HISTORY - USER"
   Name=RAMPTH   Time=0   Value=0
   Name=RAMPTH   Time=1   Value=1
   Name=RAMPTH   Time=4   Value=1
   Name=UNIFTH   Time=0   Value=1
   Name=UNIFTH   Time=1   Value=1
   Name=LOAD   Time=0   Value=0
   Name=LOAD   Time=0.025   Value=3090.1699
   Name=LOAD   Time=0.05   Value=5877.8525
   Name=LOAD   Time=0.075   Value=8090.1699
   Name=LOAD   Time=0.1   Value=9510.5652
   Name=LOAD   Time=0.125   Value=10000
   Name=LOAD   Time=0.15   Value=9510.5652
   Name=LOAD   Time=0.175   Value=8090.1699
   Name=LOAD   Time=0.2   Value=5877.8525
   Name=LOAD   Time=0.225   Value=3090.1699
   Name=LOAD   Time=0.25   Value=0
   Name=LOAD   Time=0.275   Value=-3090.17
   Name=LOAD   Time=0.3   Value=-5877.85
   Name=LOAD   Time=0.325   Value=-8090.17
   Name=LOAD   Time=0.35   Value=-9510.57
   Name=LOAD   Time=0.375   Value=-10000
   Name=LOAD   Time=0.4   Value=-9510.57
   Name=LOAD   Time=0.425   Value=-8090.17
   Name=LOAD   Time=0.45   Value=-5877.85
   Name=LOAD   Time=0.475   Value=-3090.17
   Name=LOAD   Time=0.5   Value=0
   Name=LOAD   Time=1   Value=0
 
TABLE:  "GRID LINES"
   CoordSys=GLOBAL   AxisDir=X   GridID=A   XRYZCoord=-200   LineType=Primary   LineColor=Gray8Dark   Visible=Yes   BubbleLoc=End   AllVisible=Yes   BubbleSize=50
   CoordSys=GLOBAL   AxisDir=X   GridID=B   XRYZCoord=0   LineType=Primary   LineColor=Gray8Dark   Visible=Yes   BubbleLoc=End
   CoordSys=GLOBAL   AxisDir=X   GridID=C   XRYZCoord=200   LineType=Primary   LineColor=Gray8Dark   Visible=Yes   BubbleLoc=End
   CoordSys=GLOBAL   AxisDir=Y   GridID=1   XRYZCoord=0   LineType=Primary   LineColor=Gray8Dark   Visible=Yes   BubbleLoc=Start
   CoordSys=GLOBAL   AxisDir=Z   GridID=Z1   XRYZCoord=0   LineType=Primary   LineColor=Gray8Dark   Visible=Yes   BubbleLoc=End
   CoordSys=GLOBAL   AxisDir=Z   GridID=Z2   XRYZCoord=200   LineType=Primary   LineColor=Gray8Dark   Visible=Yes   BubbleLoc=End
 
TABLE:  "GROUPS 1 - DEFINITIONS"
   GroupName=ALL   Selection=Yes   SectionCut=Yes   Steel=Yes   Concrete=Yes   Aluminum=Yes   ColdFormed=Yes   Stage=Yes   Bridge=Yes   AutoSeismic=No   AutoWind=No   SelDesSteel=No   SelDesAlum=No   SelDesCold=No   MassWeight=Yes   Color=Red
 
TABLE:  "JOINT COORDINATES"
   Joint=2   CoordSys=GLOBAL   CoordType=Cartesian   XorR=-200   Y=0   Z=200   SpecialJt=No   GUID=6aa5f91c-1474-4c9b-a28b-e95e0fb1dc5d
   Joint=3   CoordSys=GLOBAL   CoordType=Cartesian   XorR=0   Y=0   Z=0   SpecialJt=No   GUID=6aa5f91c-1474-4c9b-a28b-e95e0fb1dc5d
   Joint=4   CoordSys=GLOBAL   CoordType=Cartesian   XorR=0   Y=0   Z=200   SpecialJt=No   GUID=6aa5f91c-1474-4c9b-a28b-e95e0fb1dc5d
   Joint=6   CoordSys=GLOBAL   CoordType=Cartesian   XorR=200   Y=0   Z=200   SpecialJt=No   GUID=6aa5f91c-1474-4c9b-a28b-e95e0fb1dc5d
   Joint=7   CoordSys=GLOBAL   CoordType=Cartesian   XorR=0   Y=0   Z=50   SpecialJt=No   GUID=6aa5f91c-1474-4c9b-a28b-e95e0fb1dc5d
   Joint=8   CoordSys=GLOBAL   CoordType=Cartesian   XorR=0   Y=0   Z=100   SpecialJt=No   GUID=6aa5f91c-1474-4c9b-a28b-e95e0fb1dc5d
   Joint=9   CoordSys=GLOBAL   CoordType=Cartesian   XorR=0   Y=0   Z=150   SpecialJt=No   GUID=6aa5f91c-1474-4c9b-a28b-e95e0fb1dc5d
   Joint=10   CoordSys=GLOBAL   CoordType=Cartesian   XorR=-150   Y=0   Z=200   SpecialJt=No   GUID=6aa5f91c-1474-4c9b-a28b-e95e0fb1dc5d
   Joint=11   CoordSys=GLOBAL   CoordType=Cartesian   XorR=-100   Y=0   Z=200   SpecialJt=No   GUID=6aa5f91c-1474-4c9b-a28b-e95e0fb1dc5d
   Joint=12   CoordSys=GLOBAL   CoordType=Cartesian   XorR=-50   Y=0   Z=200   SpecialJt=No   GUID=6aa5f91c-1474-4c9b-a28b-e95e0fb1dc5d
   Joint=13   CoordSys=GLOBAL   CoordType=Cartesian   XorR=50   Y=0   Z=200   SpecialJt=No   GUID=6aa5f91c-1474-4c9b-a28b-e95e0fb1dc5d
   Joint=14   CoordSys=GLOBAL   CoordType=Cartesian   XorR=100   Y=0   Z=200   SpecialJt=No   GUID=6aa5f91c-1474-4c9b-a28b-e95e0fb1dc5d
   Joint=15   CoordSys=GLOBAL   CoordType=Cartesian   XorR=150   Y=0   Z=200   SpecialJt=No   GUID=6aa5f91c-1474-4c9b-a28b-e95e0fb1dc5d
 
TABLE:  "JOINT LOADS - FORCE"
   Joint=2   LoadPat=DEAD   CoordSys=GLOBAL   F1=0   F2=0   F3=1   M1=0   M2=0   M3=0   GUID=9994427d-677e-4390-833b-c4dcb5fc9dc0
 
TABLE:  "JOINT PATTERN DEFINITIONS"
   Pattern=Default
 
TABLE:  "JOINT RESTRAINT ASSIGNMENTS"
   Joint=3   U1=Yes   U2=Yes   U3=Yes   R1=Yes   R2=Yes   R3=Yes
 
TABLE:  "LOAD CASE DEFINITIONS"
   Case=DEAD   Type=LinDirHist   InitialCond=Zero   DesTypeOpt="Prog Det"   DesignType=DEAD   DesActOpt="Prog Det"   DesignAct="Short-Term Composite"   AutoType=None   RunCase=Yes
   Case=MODAL   Type=LinModal   InitialCond=Zero   DesTypeOpt="Prog Det"   DesignType=OTHER   DesActOpt="Prog Det"   DesignAct=Other   AutoType=None   RunCase=Yes
 
TABLE:  "LOAD PATTERN DEFINITIONS"
   LoadPat=DEAD   DesignType=DEAD   SelfWtMult=0   GUID=02b823a7-dd73-421f-acad-55247d3cc8e5
 
TABLE:  "MASS SOURCE"
   MassSource=MSSSRC1   Elements=Yes   Masses=Yes   Loads=No   IsDefault=Yes
 
TABLE:  "MATERIAL PROPERTIES 01 - GENERAL"
   Material=MAT   Type=Steel   SymType=Isotropic   TempDepend=No   Color=Cyan   Notes="ASTM A992 Grade 50 12/4/2017 7:15:46 PM"
 
TABLE:  "MATERIAL PROPERTIES 02 - BASIC MECHANICAL PROPERTIES"
   Material=MAT   UnitWeight=0.0769822040669112   UnitMass=7.85E-05   E1=20000000   G12=7692307.69230769   U12=0.3   A1=1.16999994421006E-05
 
TABLE:  "MATERIAL PROPERTIES 03A - STEEL DATA"
   Material=MAT   Fy=34473.7894475789   Fu=44815.9262818526   EffFy=37921.1683923368   EffFu=49297.5189100378   SSCurveOpt=Simple   SSHysType=Kinematic   SHard=0.015   SMax=0.11   SRup=0.17   FinalSlope=-0.1
 
TABLE:  "MATERIAL PROPERTIES 06 - DAMPING PARAMETERS"
   Material=MAT   ModalRatio=0   VisMass=0   VisStiff=0   HysMass=0   HysStiff=0
 
TABLE:  "OPTIONS - COLORS - DISPLAY"
   DeviceType=Screen   Points=Blue   LinesFrame=Blue   LinesFrmDL=Blue   LinesCable=Green   LinesTendon=Green   SpringLinks=Green   Restraints=Green   Releases=Green   Axes=Cyan   Text=Black   ShadowLines=Gray8Dark   GuideLines=Gray8Dark _
        Highlight=Red   Selection=10504778   AreaFillBot=Red   AreaFillTop=16744703   AreaFillSd=Red   AreaEdge=DarkRed   SolidF1=Red   SolidF2=Blue   SolidF3=Green   SolidF4=Yellow   SolidF5=White   SolidF6=Cyan   SolidEdge=DarkRed _
        Floor=Gray4   Background=White   BGLowLeft=White   BGLowRight=White   BGUpRight=White   Darkness=0.5
   DeviceType=Printer   Points=Gray8Dark   LinesFrame=Black   LinesFrmDL=Gray4   LinesCable=Black   LinesTendon=Black   SpringLinks=Gray8Dark   Restraints=Gray8Dark   Releases=Gray4   Axes=Black   Text=Black   ShadowLines=Gray4 _
        GuideLines=Gray4   Highlight=Black   Selection=Black   AreaFillBot=Gray4   AreaFillTop=Gray8Dark   AreaFillSd=Gray4   AreaEdge=Black   SolidF1=Gray1Light   SolidF2=Gray2   SolidF3=Gray3   SolidF4=Gray4   SolidF5=Gray5 _
        SolidF6=Gray6   SolidEdge=Black   Floor=Gray4   Background=White   BGLowLeft=White   BGLowRight=White   BGUpRight=White   Darkness=0.5
   DeviceType="Color Printer"   Points=Blue   LinesFrame=Blue   LinesFrmDL=Blue   LinesCable=Green   LinesTendon=Green   SpringLinks=Green   Restraints=Green   Releases=Green   Axes=Cyan   Text=Black   ShadowLines=Gray8Dark _
        GuideLines=Gray8Dark   Highlight=Red   Selection=10504778   AreaFillBot=Red   AreaFillTop=16744703   AreaFillSd=Red   AreaEdge=DarkRed   SolidF1=Red   SolidF2=Blue   SolidF3=Green   SolidF4=Yellow   SolidF5=White   SolidF6=Cyan _
        SolidEdge=DarkRed   Floor=Gray4   Background=White   BGLowLeft=White   BGLowRight=White   BGUpRight=White   Darkness=0.5
 
TABLE:  "OPTIONS - COLORS - OUTPUT"
   DeviceType=Screen   Contour1=13107400   Contour2=6553828   Contour3=Red   Contour4=16639   Contour5=Orange   Contour6=43775   Contour7=54527   Contour8=Yellow   Contour9=65408   Contour10=Green   Contour11=8453888   Contour12=Cyan _
        Contour13=16755200   Contour14=16733440   Contour15=Blue   Transpare=0.5   Ratio1=Cyan   Ratio2=Green   Ratio3=Yellow   Ratio4=Orange   Ratio5=Red   RatioNotD=Gray4   RatioNotC=Red   RatioVal1=0.5   RatioVal2=0.7   RatioVal3=0.9 _
        RatioVal4=1   DFillPos=Blue   DFillNeg=Red   DFillRPos=Green   DFillRNeg=Green
   DeviceType=Printer   Contour1=Black   Contour2=3158064   Contour3=4210752   Contour4=5263440   Contour5=6316128   Contour6=7368816   Contour7=Gray8Dark   Contour8=Gray7   Contour9=Gray6   Contour10=Gray5   Contour11=Gray4 _
        Contour12=Gray3   Contour13=Gray2   Contour14=Gray1Light   Contour15=White   Transpare=0   Ratio1=Gray2   Ratio2=Gray4   Ratio3=Gray8Dark   Ratio4=4210752   Ratio5=Black   RatioNotD=Gray4   RatioNotC=Black   RatioVal1=0.5 _
        RatioVal2=0.7   RatioVal3=0.9   RatioVal4=1   DFillPos=Gray8Dark   DFillNeg=Gray8Dark   DFillRPos=4210752   DFillRNeg=4210752
   DeviceType="Color Printer"   Contour1=13107400   Contour2=6553828   Contour3=Red   Contour4=16639   Contour5=Orange   Contour6=43775   Contour7=54527   Contour8=Yellow   Contour9=65408   Contour10=Green   Contour11=8453888 _
        Contour12=Cyan   Contour13=16755200   Contour14=16733440   Contour15=Blue   Transpare=0   Ratio1=Cyan   Ratio2=Green   Ratio3=Yellow   Ratio4=Orange   Ratio5=Red   RatioNotD=Gray4   RatioNotC=Red   RatioVal1=0.5   RatioVal2=0.7 _
        RatioVal3=0.9   RatioVal4=1   DFillPos=Blue   DFillNeg=Red   DFillRPos=Green   DFillRNeg=Green
 
TABLE:  "PREFERENCES - ALUMINUM DESIGN - AA-ASD 2000"
   THDesign=Envelopes   FrameType="Moment Frame"   SRatioLimit=1   MaxIter=1   LatFact=1.33333333333333   UseLatFact=No   Bridge=No
 
TABLE:  "PREFERENCES - COLD FORMED DESIGN - AISI-ASD96"
   THDesign=Envelopes   FrameType="Braced Frame"   SRatioLimit=1   MaxIter=1   OmegaBS=1.67   OmegaBUS=1.67   OmegaBLTB=1.67   OmegaVS=1.67   OmegaVNS=1.5   OmegaT=1.67   OmegaC=1.8
 
TABLE:  "PREFERENCES - CONCRETE DESIGN - ACI 318-14"
   THDesign=Envelopes   NumCurves=24   NumPoints=11   MinEccen=Yes   PatLLF=0.75   UFLimit=0.95   SeisCat=D   PhiT=0.9   PhiCTied=0.65   PhiCSpiral=0.75   PhiV=0.75   PhiVSeismic=0.6   PhiVJoint=0.85
 
TABLE:  "PREFERENCES - DIMENSIONAL"
   MergeTol=0.1   FineGrid=25   Nudge=25   SelectTol=3   SnapTol=12   SLineThick=2   PLineThick=4   MaxFont=8   MinFont=3   AutoZoom=10   ShrinkFact=70   TextFileLen=240
 
TABLE:  "PREFERENCES - STEEL DESIGN - AISC 360-10"
   THDesign=Envelopes   FrameType=SMF   PatLLF=0.75   SRatioLimit=0.95   MaxIter=1   SDC=D   SeisCode=Yes   SeisLoad=Yes   ImpFactor=1   SystemRho=1   SystemSds=0.5   SystemR=8   SystemCd=5.5   Omega0=3   Provision=LRFD _
        AMethod="Direct Analysis"   SOMethod="General 2nd Order"   SRMethod="Tau-b Fixed"   NLCoeff=0.002   PhiB=0.9   PhiC=0.9   PhiTY=0.9   PhiTF=0.75   PhiV=0.9   PhiVRolledI=1   PhiVT=0.9   PlugWeld=Yes   HSSWelding=ERW   HSSReduceT=No _
        CheckDefl=No   DLRat=120   SDLAndLLRat=120   LLRat=360   TotalRat=240   NetRat=240
 
TABLE:  "PROGRAM CONTROL"
   ProgramName=SAP2000   Version=17.3.0   CurrUnits="N, cm, C"   SteelCode="AISC 360-10"   ConcCode="ACI 318-14"   AlumCode="AA-ASD 2000"   ColdCode=AISI-ASD96   RegenHinge=Yes
 
TABLE:  "PROJECT INFORMATION"
   Item="Company Name"   Data="Computers and Structures, Inc."
   Item="Client Name"
   Item="Project Name"
   Item="Project Number"
   Item="Model Name"
   Item="Model Description"
   Item="Revision Number"
   Item="Frame Type"
   Item=Engineer
   Item=Checker
   Item=Supervisor
   Item="Issue Code"
   Item="Design Code"
 
TABLE:  "REBAR SIZES"
   RebarID=#2   Area=0.32258   Diameter=0.635
   RebarID=#3   Area=0.709675996154547   Diameter=0.9525
   RebarID=#4   Area=1.29032001922727   Diameter=1.27
   RebarID=#5   Area=1.99999601538181   Diameter=1.5875
   RebarID=#6   Area=2.83870398461819   Diameter=1.905
   RebarID=#7   Area=3.87096015381813   Diameter=2.2225
   RebarID=#8   Area=5.09676413843632   Diameter=2.54
   RebarID=#9   Area=6.4516   Diameter=2.86512005329132
   RebarID=#10   Area=8.1935318769455   Diameter=3.22579995155334
   RebarID=#11   Area=10.0644956308365   Diameter=3.58139991521835
   RebarID=#14   Area=14.5161   Diameter=4.30021989583969
   RebarID=#18   Area=25.8064   Diameter=5.73277992248535
   RebarID=10M   Area=1.00000002655387   Diameter=1.1300000667572
   RebarID=15M   Area=2.00000005310774   Diameter=1.59999999403954
   RebarID=20M   Area=3.00000017579794   Diameter=1.94999997854233
   RebarID=25M   Area=5.00000022890568   Diameter=2.52000016093254
   RebarID=30M   Area=7.00000008974075   Diameter=2.99000008821487
   RebarID=35M   Area=10.0000004578114   Diameter=3.57000011444092
   RebarID=45M   Area=15.0000010712624   Diameter=4.37000003576279
   RebarID=55M   Area=25.0000007599831   Diameter=5.64000033855438
   RebarID=6d   Area=0.283000004149973   Diameter=0.600000016689301
   RebarID=8d   Area=0.502999995571375   Diameter=0.799999997019768
   RebarID=10d   Area=0.785000013634563   Diameter=0.999999977350235
   RebarID=12d   Area=1.13000009249449   Diameter=1.2000000333786
   RebarID=14d   Area=1.54000010818839   Diameter=1.40000008940697
   RebarID=16d   Area=2.01000015431643   Diameter=1.59999999403954
   RebarID=20d   Area=3.14000005453825   Diameter=1.99999995470047
   RebarID=25d   Area=4.91000008711815   Diameter=2.50000001907349
   RebarID=26d   Area=5.31000029001236   Diameter=2.59999997138977
   RebarID=28d   Area=6.16000043275356   Diameter=2.80000017881393
   RebarID=N12   Area=1.13000009249449   Diameter=1.2000000333786
   RebarID=N16   Area=2.01000015431643   Diameter=1.59999999403954
   RebarID=N20   Area=3.14000005453825   Diameter=1.99999995470047
   RebarID=N24   Area=4.52000036997795   Diameter=2.4000000667572
   RebarID=N28   Area=6.16000043275356   Diameter=2.80000017881393
   RebarID=N32   Area=8.0400006172657   Diameter=3.19999998807907
   RebarID=N36   Area=10.2000001747131   Diameter=3.6000001001358
 
END TABLE DATA
