File C:\Users\ses516\Desktop\Adv. FE\Project\Finals - DYNAMIC\SAP\EX5.$2k was saved on 12/8/17 at 13:35:04
 
TABLE:  "ACTIVE DEGREES OF FREEDOM"
   UX=Yes   UY=No   UZ=Yes   RX=No   RY=Yes   RZ=No
 
TABLE:  "ANALYSIS OPTIONS"
   Solver=Advanced   SolverProc=Auto   Force32Bit=No   StiffCase=MODAL   GeomMod=None
 
TABLE:  "AUTO WAVE 3 - WAVE CHARACTERISTICS - GENERAL"
   WaveChar=Default   WaveType="From Theory"   KinFactor=1   SWaterDepth=4500   WaveHeight=1800   WavePeriod=12   WaveTheory=Linear
 
TABLE:  "CASE - DIRECT HISTORY 1 - GENERAL"
   Case=DEAD   OutSteps=600   StepSize=0.005
 
TABLE:  "CASE - DIRECT HISTORY 2 - LOAD ASSIGNMENTS"
   Case=DEAD   LoadType="Load pattern"   LoadName=DEAD   Function=LOAD   LoadSF=-0.0001   TimeFactor=1   ArrivalTime=0
 
TABLE:  "CASE - DIRECT HISTORY 3 - PROPORTIONAL DAMPING"
   Case=DEAD   MassCoeff=0.369   StiffCoeff=0.00030785
 
TABLE:  "CASE - DIRECT HISTORY 4 - INTEGRATION PARAMETERS"
   Case=DEAD   IntMethod=Newmark   Gamma=0.5   Beta=0.25
 
TABLE:  "CASE - MODAL 1 - GENERAL"
   Case=MODAL   ModeType=Eigen   MaxNumModes=12   MinNumModes=1   EigenShift=0   EigenCutoff=0   EigenTol=1E-09   AutoShift=Yes
 
TABLE:  "CONNECTIVITY - FRAME"
   Frame=6   JointI=1   JointJ=7   IsCurved=No   GUID=29e72d32-d4de-42e1-b13d-0562cdc2efc8
   Frame=7   JointI=7   JointJ=8   IsCurved=No   GUID=245da30e-626e-48c2-940c-3b6da943fb91
   Frame=8   JointI=8   JointJ=9   IsCurved=No   GUID=f84c6cf8-c651-4e76-9db7-e6c7e9f0645c
   Frame=9   JointI=9   JointJ=10   IsCurved=No   GUID=d04d1ca9-80ba-4d32-b390-fe07cad73e14
   Frame=10   JointI=10   JointJ=2   IsCurved=No   GUID=e0c49cf6-7049-4081-9197-3beb4c1c3b5a
   Frame=11   JointI=2   JointJ=11   IsCurved=No   GUID=b797b972-d013-448d-b603-55491c6429c6
   Frame=12   JointI=11   JointJ=12   IsCurved=No   GUID=538fd161-82db-4999-a542-f423c6e20cb4
   Frame=13   JointI=12   JointJ=13   IsCurved=No   GUID=b7d27a64-79a2-4e0e-abea-cde30b877087
   Frame=14   JointI=13   JointJ=14   IsCurved=No   GUID=3c1f109a-b76c-46c3-952b-c9d0ee1f1ee4
   Frame=15   JointI=14   JointJ=3   IsCurved=No   GUID=c9fbbf7f-1bda-4dd9-a6b0-316ebdc354c3
   Frame=16   JointI=3   JointJ=15   IsCurved=No   GUID=a0deb298-d436-490d-a790-298d73be6381
   Frame=17   JointI=15   JointJ=16   IsCurved=No   GUID=7e717d47-3b7c-4e4a-9fac-4a3aa1298024
   Frame=18   JointI=16   JointJ=17   IsCurved=No   GUID=100a3af5-4bfb-47cc-beef-15b97c07fdf6
   Frame=19   JointI=17   JointJ=18   IsCurved=No   GUID=4d3c5b18-21e6-4257-b988-37dbaf5969d1
   Frame=20   JointI=18   JointJ=4   IsCurved=No   GUID=394fd1d4-03e7-46ef-9ddb-ee9adc5e2c49
   Frame=21   JointI=4   JointJ=19   IsCurved=No   GUID=f1909334-f8df-41b3-8924-bc84644b7155
   Frame=22   JointI=19   JointJ=20   IsCurved=No   GUID=ac9cbab7-de8a-4eed-95db-abbd35fcb04a
   Frame=23   JointI=20   JointJ=21   IsCurved=No   GUID=b3b952d1-6b40-4963-8483-cd766eb0bd27
   Frame=24   JointI=21   JointJ=22   IsCurved=No   GUID=b1be8327-9283-41fb-b708-a356aa3d6bbb
   Frame=25   JointI=22   JointJ=5   IsCurved=No   GUID=74c821d4-7f10-44c1-b0fd-a2a2cbf1140b
   Frame=26   JointI=5   JointJ=23   IsCurved=No   GUID=492e1cc1-a2c2-4d38-82c0-5b27052e39ce
   Frame=27   JointI=23   JointJ=24   IsCurved=No   GUID=c5b79d1b-6dbe-4f5e-8b13-1691a45bd204
   Frame=28   JointI=24   JointJ=25   IsCurved=No   GUID=c17e521d-759f-4a3f-a247-d4779334a1ee
   Frame=29   JointI=25   JointJ=26   IsCurved=No   GUID=de5cebf2-a89c-45f8-a311-e0c2c516c4b3
   Frame=30   JointI=26   JointJ=6   IsCurved=No   GUID=b1c0268a-1d27-496d-ace8-d934a00d5e93
 
TABLE:  "COORDINATE SYSTEMS"
   Name=GLOBAL   Type=Cartesian   X=0   Y=0   Z=0   AboutZ=0   AboutY=0   AboutX=0
 
TABLE:  "DATABASE DOCUMENTATION"
 
TABLE:  "DATABASE FORMAT TYPES"
   UnitsCurr=Yes   OverrideE=No
 
TABLE:  "FRAME AUTO MESH ASSIGNMENTS"
   Frame=6   AutoMesh=Yes   AtJoints=Yes   AtFrames=No   NumSegments=0   MaxLength=0   MaxDegrees=0
   Frame=7   AutoMesh=Yes   AtJoints=Yes   AtFrames=No   NumSegments=0   MaxLength=0   MaxDegrees=0
   Frame=8   AutoMesh=Yes   AtJoints=Yes   AtFrames=No   NumSegments=0   MaxLength=0   MaxDegrees=0
   Frame=9   AutoMesh=Yes   AtJoints=Yes   AtFrames=No   NumSegments=0   MaxLength=0   MaxDegrees=0
   Frame=10   AutoMesh=Yes   AtJoints=Yes   AtFrames=No   NumSegments=0   MaxLength=0   MaxDegrees=0
   Frame=11   AutoMesh=Yes   AtJoints=Yes   AtFrames=No   NumSegments=0   MaxLength=0   MaxDegrees=0
   Frame=12   AutoMesh=Yes   AtJoints=Yes   AtFrames=No   NumSegments=0   MaxLength=0   MaxDegrees=0
   Frame=13   AutoMesh=Yes   AtJoints=Yes   AtFrames=No   NumSegments=0   MaxLength=0   MaxDegrees=0
   Frame=14   AutoMesh=Yes   AtJoints=Yes   AtFrames=No   NumSegments=0   MaxLength=0   MaxDegrees=0
   Frame=15   AutoMesh=Yes   AtJoints=Yes   AtFrames=No   NumSegments=0   MaxLength=0   MaxDegrees=0
   Frame=16   AutoMesh=Yes   AtJoints=Yes   AtFrames=No   NumSegments=0   MaxLength=0   MaxDegrees=0
   Frame=17   AutoMesh=Yes   AtJoints=Yes   AtFrames=No   NumSegments=0   MaxLength=0   MaxDegrees=0
   Frame=18   AutoMesh=Yes   AtJoints=Yes   AtFrames=No   NumSegments=0   MaxLength=0   MaxDegrees=0
   Frame=19   AutoMesh=Yes   AtJoints=Yes   AtFrames=No   NumSegments=0   MaxLength=0   MaxDegrees=0
   Frame=20   AutoMesh=Yes   AtJoints=Yes   AtFrames=No   NumSegments=0   MaxLength=0   MaxDegrees=0
   Frame=21   AutoMesh=Yes   AtJoints=Yes   AtFrames=No   NumSegments=0   MaxLength=0   MaxDegrees=0
   Frame=22   AutoMesh=Yes   AtJoints=Yes   AtFrames=No   NumSegments=0   MaxLength=0   MaxDegrees=0
   Frame=23   AutoMesh=Yes   AtJoints=Yes   AtFrames=No   NumSegments=0   MaxLength=0   MaxDegrees=0
   Frame=24   AutoMesh=Yes   AtJoints=Yes   AtFrames=No   NumSegments=0   MaxLength=0   MaxDegrees=0
   Frame=25   AutoMesh=Yes   AtJoints=Yes   AtFrames=No   NumSegments=0   MaxLength=0   MaxDegrees=0
# ... 5 like lines cut
 
TABLE:  "FRAME DESIGN PROCEDURES"
   Frame=6   DesignProc="From Material"
   Frame=7   DesignProc="From Material"
   Frame=8   DesignProc="From Material"
   Frame=9   DesignProc="From Material"
   Frame=10   DesignProc="From Material"
   Frame=11   DesignProc="From Material"
   Frame=12   DesignProc="From Material"
   Frame=13   DesignProc="From Material"
   Frame=14   DesignProc="From Material"
   Frame=15   DesignProc="From Material"
   Frame=16   DesignProc="From Material"
   Frame=17   DesignProc="From Material"
   Frame=18   DesignProc="From Material"
   Frame=19   DesignProc="From Material"
   Frame=20   DesignProc="From Material"
   Frame=21   DesignProc="From Material"
   Frame=22   DesignProc="From Material"
   Frame=23   DesignProc="From Material"
   Frame=24   DesignProc="From Material"
   Frame=25   DesignProc="From Material"
# ... 5 like lines cut
 
TABLE:  "FRAME LOAD TRANSFER OPTIONS"
   Frame=6   Transfer=Yes
   Frame=7   Transfer=Yes
   Frame=8   Transfer=Yes
   Frame=9   Transfer=Yes
   Frame=10   Transfer=Yes
   Frame=11   Transfer=Yes
   Frame=12   Transfer=Yes
   Frame=13   Transfer=Yes
   Frame=14   Transfer=Yes
   Frame=15   Transfer=Yes
   Frame=16   Transfer=Yes
   Frame=17   Transfer=Yes
   Frame=18   Transfer=Yes
   Frame=19   Transfer=Yes
   Frame=20   Transfer=Yes
   Frame=21   Transfer=Yes
   Frame=22   Transfer=Yes
   Frame=23   Transfer=Yes
   Frame=24   Transfer=Yes
   Frame=25   Transfer=Yes
# ... 5 like lines cut
 
TABLE:  "FRAME OUTPUT STATION ASSIGNMENTS"
   Frame=6   StationType=MaxStaSpcg   MaxStaSpcg=50   AddAtElmInt=Yes   AddAtPtLoad=Yes
   Frame=7   StationType=MaxStaSpcg   MaxStaSpcg=50   AddAtElmInt=Yes   AddAtPtLoad=Yes
   Frame=8   StationType=MaxStaSpcg   MaxStaSpcg=50   AddAtElmInt=Yes   AddAtPtLoad=Yes
   Frame=9   StationType=MaxStaSpcg   MaxStaSpcg=50   AddAtElmInt=Yes   AddAtPtLoad=Yes
   Frame=10   StationType=MaxStaSpcg   MaxStaSpcg=50   AddAtElmInt=Yes   AddAtPtLoad=Yes
   Frame=11   StationType=MaxStaSpcg   MaxStaSpcg=50   AddAtElmInt=Yes   AddAtPtLoad=Yes
   Frame=12   StationType=MaxStaSpcg   MaxStaSpcg=50   AddAtElmInt=Yes   AddAtPtLoad=Yes
   Frame=13   StationType=MaxStaSpcg   MaxStaSpcg=50   AddAtElmInt=Yes   AddAtPtLoad=Yes
   Frame=14   StationType=MaxStaSpcg   MaxStaSpcg=50   AddAtElmInt=Yes   AddAtPtLoad=Yes
   Frame=15   StationType=MaxStaSpcg   MaxStaSpcg=50   AddAtElmInt=Yes   AddAtPtLoad=Yes
   Frame=16   StationType=MaxStaSpcg   MaxStaSpcg=50   AddAtElmInt=Yes   AddAtPtLoad=Yes
   Frame=17   StationType=MaxStaSpcg   MaxStaSpcg=50   AddAtElmInt=Yes   AddAtPtLoad=Yes
   Frame=18   StationType=MaxStaSpcg   MaxStaSpcg=50   AddAtElmInt=Yes   AddAtPtLoad=Yes
   Frame=19   StationType=MaxStaSpcg   MaxStaSpcg=50   AddAtElmInt=Yes   AddAtPtLoad=Yes
   Frame=20   StationType=MaxStaSpcg   MaxStaSpcg=50   AddAtElmInt=Yes   AddAtPtLoad=Yes
   Frame=21   StationType=MaxStaSpcg   MaxStaSpcg=50   AddAtElmInt=Yes   AddAtPtLoad=Yes
   Frame=22   StationType=MaxStaSpcg   MaxStaSpcg=50   AddAtElmInt=Yes   AddAtPtLoad=Yes
   Frame=23   StationType=MaxStaSpcg   MaxStaSpcg=50   AddAtElmInt=Yes   AddAtPtLoad=Yes
   Frame=24   StationType=MaxStaSpcg   MaxStaSpcg=50   AddAtElmInt=Yes   AddAtPtLoad=Yes
   Frame=25   StationType=MaxStaSpcg   MaxStaSpcg=50   AddAtElmInt=Yes   AddAtPtLoad=Yes
# ... 5 like lines cut
 
TABLE:  "FRAME SECTION ASSIGNMENTS"
   Frame=6   AutoSelect=N.A.   AnalSect=FSEC3   MatProp=Default
   Frame=7   AutoSelect=N.A.   AnalSect=FSEC3   MatProp=Default
   Frame=8   AutoSelect=N.A.   AnalSect=FSEC3   MatProp=Default
   Frame=9   AutoSelect=N.A.   AnalSect=FSEC3   MatProp=Default
   Frame=10   AutoSelect=N.A.   AnalSect=FSEC3   MatProp=Default
   Frame=11   AutoSelect=N.A.   AnalSect=FSEC3   MatProp=Default
   Frame=12   AutoSelect=N.A.   AnalSect=FSEC3   MatProp=Default
   Frame=13   AutoSelect=N.A.   AnalSect=FSEC3   MatProp=Default
   Frame=14   AutoSelect=N.A.   AnalSect=FSEC3   MatProp=Default
   Frame=15   AutoSelect=N.A.   AnalSect=FSEC3   MatProp=Default
   Frame=16   AutoSelect=N.A.   AnalSect=FSEC3   MatProp=Default
   Frame=17   AutoSelect=N.A.   AnalSect=FSEC3   MatProp=Default
   Frame=18   AutoSelect=N.A.   AnalSect=FSEC3   MatProp=Default
   Frame=19   AutoSelect=N.A.   AnalSect=FSEC3   MatProp=Default
   Frame=20   AutoSelect=N.A.   AnalSect=FSEC3   MatProp=Default
   Frame=21   AutoSelect=N.A.   AnalSect=FSEC3   MatProp=Default
   Frame=22   AutoSelect=N.A.   AnalSect=FSEC3   MatProp=Default
   Frame=23   AutoSelect=N.A.   AnalSect=FSEC3   MatProp=Default
   Frame=24   AutoSelect=N.A.   AnalSect=FSEC3   MatProp=Default
   Frame=25   AutoSelect=N.A.   AnalSect=FSEC3   MatProp=Default
# ... 5 like lines cut
 
TABLE:  "FRAME SECTION PROPERTIES 01 - GENERAL"
   SectionName=FSEC1   Material=MAT   Shape="I/Wide Flange"   t3=30.48   t2=12.7   tf=0.9652   tw=0.635   t2b=12.7   tfb=0.9652   Area=42.645076   TorsConst=9.65117678053953   I33=6572.4174702235   I22=330.125717301008   I23=0   AS2=19.3548 _
        AS3=20.4300666666667   S33=431.26098885981   S22=51.9883019371667   Z33=491.1874950424   Z22=80.716532115   R33=12.4144683132414   R22=2.78230817990979   Color=Cyan   FromFile=No   AMod=1   A2Mod=1   A3Mod=1   JMod=1   I2Mod=1 _
        I3Mod=1   MMod=1   WMod=1   Notes="Added 12/4/2017 7:15:59 PM"
   SectionName=FSEC2   Material=MAT   Shape="I/Wide Flange"   t3=40   t2=25   tf=1.5   tw=0.8   t2b=25   tfb=1.5   Area=104.6   TorsConst=60.3524006666667   I33=31183.1166666667   I22=3907.82866666667   I23=0   AS2=32   AS3=62.5 _
        S33=1559.15583333333   S22=312.626293333333   Z33=1717.55   Z22=474.67   R33=17.2660867065858   R22=6.11226133988574   Color=Gray8Dark   FromFile=No   AMod=1   A2Mod=1   A3Mod=1   JMod=1   I2Mod=1   I3Mod=1   MMod=1   WMod=1   Notes="Added 12/4/2017 7:18:09 PM"
   SectionName=FSEC3   Material=MAT   Shape="I/Wide Flange"   t3=20   t2=15   tf=1   tw=0.6   t2b=15   tfb=1   Area=40.8   TorsConst=10.848784   I33=3001.6   I22=562.824   I23=0   AS2=12   AS3=25   S33=300.16   S22=75.0432   Z33=333.6 _
        Z22=114.12   R33=8.57721560012224   R22=3.71412249156553   Color=Magenta   FromFile=No   AMod=1   A2Mod=1   A3Mod=1   JMod=1   I2Mod=1   I3Mod=1   MMod=1   WMod=1   Notes="Added 12/6/2017 3:08:24 PM"
 
TABLE:  "FRAME SECTION PROPERTIES 13 - TIME DEPENDENT"
   SectionName=FSEC1   TypeSize=Auto   AutoSFSize=1
   SectionName=FSEC2   TypeSize=Auto   AutoSFSize=1
   SectionName=FSEC3   TypeSize=Auto   AutoSFSize=1
 
TABLE:  "FUNCTION - PLOT FUNCTIONS"
   PlotFunc=Joint17   Type=Joint   ObjectLabel=17   Component=RelDispU3   Mode=All
 
TABLE:  "FUNCTION - POWER SPECTRAL DENSITY - USER"
   Name=UNIFPSD   Frequency=0   Value=1
   Name=UNIFPSD   Frequency=1   Value=1
 
TABLE:  "FUNCTION - RESPONSE SPECTRUM - USER"
   Name=UNIFRS   Period=0   Accel=1   FuncDamp=0.05
   Name=UNIFRS   Period=1   Accel=1
 
TABLE:  "FUNCTION - STEADY STATE - USER"
   Name=UNIFSS   Frequency=0   Value=1
   Name=UNIFSS   Frequency=1   Value=1
 
TABLE:  "FUNCTION - TIME HISTORY - USER"
   Name=RAMPTH   Time=0   Value=0
   Name=RAMPTH   Time=1   Value=1
   Name=RAMPTH   Time=4   Value=1
   Name=UNIFTH   Time=0   Value=1
   Name=UNIFTH   Time=1   Value=1
   Name=LOAD   Time=0   Value=0
   Name=LOAD   Time=0.025   Value=3090.1699
   Name=LOAD   Time=0.05   Value=5877.8525
   Name=LOAD   Time=0.075   Value=8090.1699
   Name=LOAD   Time=0.1   Value=9510.5652
   Name=LOAD   Time=0.125   Value=10000
   Name=LOAD   Time=0.15   Value=9510.5652
   Name=LOAD   Time=0.175   Value=8090.1699
   Name=LOAD   Time=0.2   Value=5877.8525
   Name=LOAD   Time=0.225   Value=3090.1699
   Name=LOAD   Time=0.25   Value=0
   Name=LOAD   Time=0.275   Value=-3090.17
   Name=LOAD   Time=0.3   Value=-5877.85
   Name=LOAD   Time=0.325   Value=-8090.17
   Name=LOAD   Time=0.35   Value=-9510.57
   Name=LOAD   Time=0.375   Value=-10000
   Name=LOAD   Time=0.4   Value=-9510.57
   Name=LOAD   Time=0.425   Value=-8090.17
   Name=LOAD   Time=0.45   Value=-5877.85
   Name=LOAD   Time=0.475   Value=-3090.17
   Name=LOAD   Time=0.5   Value=0
   Name=LOAD   Time=1   Value=0
 
TABLE:  "GRID LINES"
   CoordSys=GLOBAL   AxisDir=X   GridID=A   XRYZCoord=-1250   LineType=Primary   LineColor=Gray8Dark   Visible=Yes   BubbleLoc=End   AllVisible=Yes   BubbleSize=125
   CoordSys=GLOBAL   AxisDir=X   GridID=B   XRYZCoord=-750   LineType=Primary   LineColor=Gray8Dark   Visible=Yes   BubbleLoc=End
   CoordSys=GLOBAL   AxisDir=X   GridID=C   XRYZCoord=-250   LineType=Primary   LineColor=Gray8Dark   Visible=Yes   BubbleLoc=End
   CoordSys=GLOBAL   AxisDir=X   GridID=D   XRYZCoord=250   LineType=Primary   LineColor=Gray8Dark   Visible=Yes   BubbleLoc=End
   CoordSys=GLOBAL   AxisDir=X   GridID=E   XRYZCoord=750   LineType=Primary   LineColor=Gray8Dark   Visible=Yes   BubbleLoc=End
   CoordSys=GLOBAL   AxisDir=X   GridID=F   XRYZCoord=1250   LineType=Primary   LineColor=Gray8Dark   Visible=Yes   BubbleLoc=End
   CoordSys=GLOBAL   AxisDir=Y   GridID=1   XRYZCoord=0   LineType=Primary   LineColor=Gray8Dark   Visible=Yes   BubbleLoc=Start
   CoordSys=GLOBAL   AxisDir=Z   GridID=Z1   XRYZCoord=0   LineType=Primary   LineColor=Gray8Dark   Visible=Yes   BubbleLoc=End
 
TABLE:  "GROUPS 1 - DEFINITIONS"
   GroupName=ALL   Selection=Yes   SectionCut=Yes   Steel=Yes   Concrete=Yes   Aluminum=Yes   ColdFormed=Yes   Stage=Yes   Bridge=Yes   AutoSeismic=No   AutoWind=No   SelDesSteel=No   SelDesAlum=No   SelDesCold=No   MassWeight=Yes   Color=Red
 
TABLE:  "JOINT COORDINATES"
   Joint=1   CoordSys=GLOBAL   CoordType=Cartesian   XorR=-1250   Y=0   Z=0   SpecialJt=No   GUID=12568000-3c87-4339-9199-18b10333dd53
   Joint=2   CoordSys=GLOBAL   CoordType=Cartesian   XorR=-750   Y=0   Z=0   SpecialJt=No   GUID=12568000-3c87-4339-9199-18b10333dd53
   Joint=3   CoordSys=GLOBAL   CoordType=Cartesian   XorR=-250   Y=0   Z=0   SpecialJt=No   GUID=12568000-3c87-4339-9199-18b10333dd53
   Joint=4   CoordSys=GLOBAL   CoordType=Cartesian   XorR=250   Y=0   Z=0   SpecialJt=No   GUID=12568000-3c87-4339-9199-18b10333dd53
   Joint=5   CoordSys=GLOBAL   CoordType=Cartesian   XorR=750   Y=0   Z=0   SpecialJt=No   GUID=12568000-3c87-4339-9199-18b10333dd53
   Joint=6   CoordSys=GLOBAL   CoordType=Cartesian   XorR=1250   Y=0   Z=0   SpecialJt=No   GUID=12568000-3c87-4339-9199-18b10333dd53
   Joint=7   CoordSys=GLOBAL   CoordType=Cartesian   XorR=-1150   Y=0   Z=0   SpecialJt=No   GUID=12568000-3c87-4339-9199-18b10333dd53
   Joint=8   CoordSys=GLOBAL   CoordType=Cartesian   XorR=-1050   Y=0   Z=0   SpecialJt=No   GUID=12568000-3c87-4339-9199-18b10333dd53
   Joint=9   CoordSys=GLOBAL   CoordType=Cartesian   XorR=-950   Y=0   Z=0   SpecialJt=No   GUID=12568000-3c87-4339-9199-18b10333dd53
   Joint=10   CoordSys=GLOBAL   CoordType=Cartesian   XorR=-850   Y=0   Z=0   SpecialJt=No   GUID=12568000-3c87-4339-9199-18b10333dd53
   Joint=11   CoordSys=GLOBAL   CoordType=Cartesian   XorR=-650   Y=0   Z=0   SpecialJt=No   GUID=12568000-3c87-4339-9199-18b10333dd53
   Joint=12   CoordSys=GLOBAL   CoordType=Cartesian   XorR=-550   Y=0   Z=0   SpecialJt=No   GUID=12568000-3c87-4339-9199-18b10333dd53
   Joint=13   CoordSys=GLOBAL   CoordType=Cartesian   XorR=-450   Y=0   Z=0   SpecialJt=No   GUID=12568000-3c87-4339-9199-18b10333dd53
   Joint=14   CoordSys=GLOBAL   CoordType=Cartesian   XorR=-350   Y=0   Z=0   SpecialJt=No   GUID=12568000-3c87-4339-9199-18b10333dd53
   Joint=15   CoordSys=GLOBAL   CoordType=Cartesian   XorR=-150   Y=0   Z=0   SpecialJt=No   GUID=12568000-3c87-4339-9199-18b10333dd53
   Joint=16   CoordSys=GLOBAL   CoordType=Cartesian   XorR=-50   Y=0   Z=0   SpecialJt=No   GUID=12568000-3c87-4339-9199-18b10333dd53
   Joint=17   CoordSys=GLOBAL   CoordType=Cartesian   XorR=50.0000000000001   Y=0   Z=0   SpecialJt=No   GUID=12568000-3c87-4339-9199-18b10333dd53
   Joint=18   CoordSys=GLOBAL   CoordType=Cartesian   XorR=150   Y=0   Z=0   SpecialJt=No   GUID=12568000-3c87-4339-9199-18b10333dd53
   Joint=19   CoordSys=GLOBAL   CoordType=Cartesian   XorR=350   Y=0   Z=0   SpecialJt=No   GUID=12568000-3c87-4339-9199-18b10333dd53
   Joint=20   CoordSys=GLOBAL   CoordType=Cartesian   XorR=450   Y=0   Z=0   SpecialJt=No   GUID=12568000-3c87-4339-9199-18b10333dd53
# ... 6 like lines cut
 
TABLE:  "JOINT LOADS - FORCE"
   Joint=12   LoadPat=DEAD   CoordSys=GLOBAL   F1=0   F2=0   F3=-20000   M1=0   M2=0   M3=0   GUID=728a78be-fa66-4b25-a18e-c11255508478
   Joint=21   LoadPat=DEAD   CoordSys=GLOBAL   F1=0   F2=0   F3=20000   M1=0   M2=0   M3=0   GUID=f1b9228d-8044-43cc-bfd0-0084fee7a91e
 
TABLE:  "JOINT PATTERN DEFINITIONS"
   Pattern=Default
 
TABLE:  "JOINT RESTRAINT ASSIGNMENTS"
   Joint=1   U1=Yes   U2=Yes   U3=Yes   R1=Yes   R2=No   R3=Yes
   Joint=2   U1=Yes   U2=Yes   U3=Yes   R1=No   R2=No   R3=No
   Joint=3   U1=Yes   U2=Yes   U3=Yes   R1=No   R2=No   R3=No
   Joint=4   U1=Yes   U2=Yes   U3=Yes   R1=No   R2=No   R3=No
   Joint=5   U1=Yes   U2=Yes   U3=Yes   R1=No   R2=No   R3=No
   Joint=6   U1=Yes   U2=Yes   U3=Yes   R1=No   R2=No   R3=No
 
TABLE:  "LOAD CASE DEFINITIONS"
   Case=DEAD   Type=LinDirHist   InitialCond=Zero   DesTypeOpt="Prog Det"   DesignType=DEAD   DesActOpt="Prog Det"   DesignAct="Short-Term Composite"   AutoType=None   RunCase=Yes
   Case=MODAL   Type=LinModal   InitialCond=Zero   DesTypeOpt="Prog Det"   DesignType=OTHER   DesActOpt="Prog Det"   DesignAct=Other   AutoType=None   RunCase=Yes
 
TABLE:  "LOAD PATTERN DEFINITIONS"
   LoadPat=DEAD   DesignType=DEAD   SelfWtMult=0   GUID=02b823a7-dd73-421f-acad-55247d3cc8e5
 
TABLE:  "MASS SOURCE"
   MassSource=MSSSRC1   Elements=Yes   Masses=Yes   Loads=No   IsDefault=Yes
 
TABLE:  "MATERIAL PROPERTIES 01 - GENERAL"
   Material=MAT   Type=Steel   SymType=Isotropic   TempDepend=No   Color=Cyan   Notes="ASTM A992 Grade 50 12/4/2017 7:15:46 PM"
 
TABLE:  "MATERIAL PROPERTIES 02 - BASIC MECHANICAL PROPERTIES"
   Material=MAT   UnitWeight=0.0769822040669112   UnitMass=7.85E-05   E1=20000000   G12=7692307.69230769   U12=0.3   A1=1.16999994421006E-05
 
TABLE:  "MATERIAL PROPERTIES 03A - STEEL DATA"
   Material=MAT   Fy=34473.7894475789   Fu=44815.9262818526   EffFy=37921.1683923368   EffFu=49297.5189100378   SSCurveOpt=Simple   SSHysType=Kinematic   SHard=0.015   SMax=0.11   SRup=0.17   FinalSlope=-0.1
 
TABLE:  "MATERIAL PROPERTIES 06 - DAMPING PARAMETERS"
   Material=MAT   ModalRatio=0   VisMass=0   VisStiff=0   HysMass=0   HysStiff=0
 
TABLE:  "OPTIONS - COLORS - DISPLAY"
   DeviceType=Screen   Points=Blue   LinesFrame=Blue   LinesFrmDL=Blue   LinesCable=Green   LinesTendon=Green   SpringLinks=Green   Restraints=Green   Releases=Green   Axes=Cyan   Text=Black   ShadowLines=Gray8Dark   GuideLines=Gray8Dark _
        Highlight=Red   Selection=10504778   AreaFillBot=Red   AreaFillTop=16744703   AreaFillSd=Red   AreaEdge=DarkRed   SolidF1=Red   SolidF2=Blue   SolidF3=Green   SolidF4=Yellow   SolidF5=White   SolidF6=Cyan   SolidEdge=DarkRed _
        Floor=Gray4   Background=White   BGLowLeft=White   BGLowRight=White   BGUpRight=White   Darkness=0.5
   DeviceType=Printer   Points=Gray8Dark   LinesFrame=Black   LinesFrmDL=Gray4   LinesCable=Black   LinesTendon=Black   SpringLinks=Gray8Dark   Restraints=Gray8Dark   Releases=Gray4   Axes=Black   Text=Black   ShadowLines=Gray4 _
        GuideLines=Gray4   Highlight=Black   Selection=Black   AreaFillBot=Gray4   AreaFillTop=Gray8Dark   AreaFillSd=Gray4   AreaEdge=Black   SolidF1=Gray1Light   SolidF2=Gray2   SolidF3=Gray3   SolidF4=Gray4   SolidF5=Gray5 _
        SolidF6=Gray6   SolidEdge=Black   Floor=Gray4   Background=White   BGLowLeft=White   BGLowRight=White   BGUpRight=White   Darkness=0.5
   DeviceType="Color Printer"   Points=Blue   LinesFrame=Blue   LinesFrmDL=Blue   LinesCable=Green   LinesTendon=Green   SpringLinks=Green   Restraints=Green   Releases=Green   Axes=Cyan   Text=Black   ShadowLines=Gray8Dark _
        GuideLines=Gray8Dark   Highlight=Red   Selection=10504778   AreaFillBot=Red   AreaFillTop=16744703   AreaFillSd=Red   AreaEdge=DarkRed   SolidF1=Red   SolidF2=Blue   SolidF3=Green   SolidF4=Yellow   SolidF5=White   SolidF6=Cyan _
        SolidEdge=DarkRed   Floor=Gray4   Background=White   BGLowLeft=White   BGLowRight=White   BGUpRight=White   Darkness=0.5
 
TABLE:  "OPTIONS - COLORS - OUTPUT"
   DeviceType=Screen   Contour1=13107400   Contour2=6553828   Contour3=Red   Contour4=16639   Contour5=Orange   Contour6=43775   Contour7=54527   Contour8=Yellow   Contour9=65408   Contour10=Green   Contour11=8453888   Contour12=Cyan _
        Contour13=16755200   Contour14=16733440   Contour15=Blue   Transpare=0.5   Ratio1=Cyan   Ratio2=Green   Ratio3=Yellow   Ratio4=Orange   Ratio5=Red   RatioNotD=Gray4   RatioNotC=Red   RatioVal1=0.5   RatioVal2=0.7   RatioVal3=0.9 _
        RatioVal4=1   DFillPos=Blue   DFillNeg=Red   DFillRPos=Green   DFillRNeg=Green
   DeviceType=Printer   Contour1=Black   Contour2=3158064   Contour3=4210752   Contour4=5263440   Contour5=6316128   Contour6=7368816   Contour7=Gray8Dark   Contour8=Gray7   Contour9=Gray6   Contour10=Gray5   Contour11=Gray4 _
        Contour12=Gray3   Contour13=Gray2   Contour14=Gray1Light   Contour15=White   Transpare=0   Ratio1=Gray2   Ratio2=Gray4   Ratio3=Gray8Dark   Ratio4=4210752   Ratio5=Black   RatioNotD=Gray4   RatioNotC=Black   RatioVal1=0.5 _
        RatioVal2=0.7   RatioVal3=0.9   RatioVal4=1   DFillPos=Gray8Dark   DFillNeg=Gray8Dark   DFillRPos=4210752   DFillRNeg=4210752
   DeviceType="Color Printer"   Contour1=13107400   Contour2=6553828   Contour3=Red   Contour4=16639   Contour5=Orange   Contour6=43775   Contour7=54527   Contour8=Yellow   Contour9=65408   Contour10=Green   Contour11=8453888 _
        Contour12=Cyan   Contour13=16755200   Contour14=16733440   Contour15=Blue   Transpare=0   Ratio1=Cyan   Ratio2=Green   Ratio3=Yellow   Ratio4=Orange   Ratio5=Red   RatioNotD=Gray4   RatioNotC=Red   RatioVal1=0.5   RatioVal2=0.7 _
        RatioVal3=0.9   RatioVal4=1   DFillPos=Blue   DFillNeg=Red   DFillRPos=Green   DFillRNeg=Green
 
TABLE:  "PREFERENCES - ALUMINUM DESIGN - AA-ASD 2000"
   THDesign=Envelopes   FrameType="Moment Frame"   SRatioLimit=1   MaxIter=1   LatFact=1.33333333333333   UseLatFact=No   Bridge=No
 
TABLE:  "PREFERENCES - COLD FORMED DESIGN - AISI-ASD96"
   THDesign=Envelopes   FrameType="Braced Frame"   SRatioLimit=1   MaxIter=1   OmegaBS=1.67   OmegaBUS=1.67   OmegaBLTB=1.67   OmegaVS=1.67   OmegaVNS=1.5   OmegaT=1.67   OmegaC=1.8
 
TABLE:  "PREFERENCES - CONCRETE DESIGN - ACI 318-14"
   THDesign=Envelopes   NumCurves=24   NumPoints=11   MinEccen=Yes   PatLLF=0.75   UFLimit=0.95   SeisCat=D   PhiT=0.9   PhiCTied=0.65   PhiCSpiral=0.75   PhiV=0.75   PhiVSeismic=0.6   PhiVJoint=0.85
 
TABLE:  "PREFERENCES - DIMENSIONAL"
   MergeTol=0.1   FineGrid=25   Nudge=25   SelectTol=3   SnapTol=12   SLineThick=2   PLineThick=4   MaxFont=8   MinFont=3   AutoZoom=10   ShrinkFact=70   TextFileLen=240
 
TABLE:  "PREFERENCES - STEEL DESIGN - AISC 360-10"
   THDesign=Envelopes   FrameType=SMF   PatLLF=0.75   SRatioLimit=0.95   MaxIter=1   SDC=D   SeisCode=Yes   SeisLoad=Yes   ImpFactor=1   SystemRho=1   SystemSds=0.5   SystemR=8   SystemCd=5.5   Omega0=3   Provision=LRFD _
        AMethod="Direct Analysis"   SOMethod="General 2nd Order"   SRMethod="Tau-b Fixed"   NLCoeff=0.002   PhiB=0.9   PhiC=0.9   PhiTY=0.9   PhiTF=0.75   PhiV=0.9   PhiVRolledI=1   PhiVT=0.9   PlugWeld=Yes   HSSWelding=ERW   HSSReduceT=No _
        CheckDefl=No   DLRat=120   SDLAndLLRat=120   LLRat=360   TotalRat=240   NetRat=240
 
TABLE:  "PROGRAM CONTROL"
   ProgramName=SAP2000   Version=17.3.0   CurrUnits="N, cm, C"   SteelCode="AISC 360-10"   ConcCode="ACI 318-14"   AlumCode="AA-ASD 2000"   ColdCode=AISI-ASD96   RegenHinge=Yes
 
TABLE:  "PROJECT INFORMATION"
   Item="Company Name"   Data="Computers and Structures, Inc."
   Item="Client Name"
   Item="Project Name"
   Item="Project Number"
   Item="Model Name"
   Item="Model Description"
   Item="Revision Number"
   Item="Frame Type"
   Item=Engineer
   Item=Checker
   Item=Supervisor
   Item="Issue Code"
   Item="Design Code"
 
TABLE:  "REBAR SIZES"
   RebarID=#2   Area=0.32258   Diameter=0.635
   RebarID=#3   Area=0.709675996154547   Diameter=0.9525
   RebarID=#4   Area=1.29032001922727   Diameter=1.27
   RebarID=#5   Area=1.99999601538181   Diameter=1.5875
   RebarID=#6   Area=2.83870398461819   Diameter=1.905
   RebarID=#7   Area=3.87096015381813   Diameter=2.2225
   RebarID=#8   Area=5.09676413843632   Diameter=2.54
   RebarID=#9   Area=6.4516   Diameter=2.86512005329132
   RebarID=#10   Area=8.1935318769455   Diameter=3.22579995155334
   RebarID=#11   Area=10.0644956308365   Diameter=3.58139991521835
   RebarID=#14   Area=14.5161   Diameter=4.30021989583969
   RebarID=#18   Area=25.8064   Diameter=5.73277992248535
   RebarID=10M   Area=1.00000002655387   Diameter=1.1300000667572
   RebarID=15M   Area=2.00000005310774   Diameter=1.59999999403954
   RebarID=20M   Area=3.00000017579794   Diameter=1.94999997854233
   RebarID=25M   Area=5.00000022890568   Diameter=2.52000016093254
   RebarID=30M   Area=7.00000008974075   Diameter=2.99000008821487
   RebarID=35M   Area=10.0000004578114   Diameter=3.57000011444092
   RebarID=45M   Area=15.0000010712624   Diameter=4.37000003576279
   RebarID=55M   Area=25.0000007599831   Diameter=5.64000033855438
   RebarID=6d   Area=0.283000004149973   Diameter=0.600000016689301
   RebarID=8d   Area=0.502999995571375   Diameter=0.799999997019768
   RebarID=10d   Area=0.785000013634563   Diameter=0.999999977350235
   RebarID=12d   Area=1.13000009249449   Diameter=1.2000000333786
   RebarID=14d   Area=1.54000010818839   Diameter=1.40000008940697
   RebarID=16d   Area=2.01000015431643   Diameter=1.59999999403954
   RebarID=20d   Area=3.14000005453825   Diameter=1.99999995470047
   RebarID=25d   Area=4.91000008711815   Diameter=2.50000001907349
   RebarID=26d   Area=5.31000029001236   Diameter=2.59999997138977
   RebarID=28d   Area=6.16000043275356   Diameter=2.80000017881393
   RebarID=N12   Area=1.13000009249449   Diameter=1.2000000333786
   RebarID=N16   Area=2.01000015431643   Diameter=1.59999999403954
   RebarID=N20   Area=3.14000005453825   Diameter=1.99999995470047
   RebarID=N24   Area=4.52000036997795   Diameter=2.4000000667572
   RebarID=N28   Area=6.16000043275356   Diameter=2.80000017881393
   RebarID=N32   Area=8.0400006172657   Diameter=3.19999998807907
   RebarID=N36   Area=10.2000001747131   Diameter=3.6000001001358
 
END TABLE DATA
